gem5 Simulator System.  http://gem5.org
gem5 is copyrighted software; use the --copyright option for details.

gem5 compiled Mar 26 2013 13:03:04
gem5 started Mar 26 2013 18:30:24
gem5 executing on espresso
command line: ./build/X86_MESI_CMP_directory/gem5_LRU.opt -d m5out/X86_mcf/LRU/1Mb_cache/ configs/example/ruby_fs.py -n 4 --mem-size=2GB --ruby --caches --l2cache --l1d_size=32kB --l1i_size=32kB --l2_size=1MB --l1d_assoc=2 --l1i_assoc=2 --l2_assoc=16 --kernel=/home/arunkumar/full_system_images/x86_img/binaries/x86_64-vmlinux-2.6.22.9.smp --disk-image=/home/arunkumar/full_system_images/x86_img/disks/x86root.img --script=/home/arunkumar/gem5/configs/boot/spec_mcf.rcS --maxinsts=10000000 --checkpoint-dir=/home/arunkumar/gem5/m5out/X86_mcf/ --restore-with-cpu=timing -r 2
warning: add_child('terminal'): child 'terminal' already has parent
Global frequency set at 1000000000000 ticks per second
info: kernel located at: /home/arunkumar/full_system_images/x86_img/binaries/x86_64-vmlinux-2.6.22.9.smp
      0: rtc: Real-time clock set to Sun Jan  1 00:00:00 2012
**** REAL SIMULATION ****
info: Entering event queue @ 6323370021500.  Starting simulation...
BEFORE : access address is [0x7f050000, line 0x7f050000]

AFTER : access address is [0x7f050000, line 0x7f050000]
  [0x7f050000, line 0x7f050000] : 6323370208000

BEFORE : access address is [0x7f050000, line 0x7f050000]
	[0x7f050000, line 0x7f050000] : 6323370208000

BEFORE : access address is [0x7ecb0000, line 0x7ecb0000]
	[0x7f050000, line 0x7f050000] : 6323370208000

AFTER : access address is [0x7ecb0000, line 0x7ecb0000]
	[0x7f050000, line 0x7f050000] : 6323370208000
	[0x7ecb0000, line 0x7ecb0000] : 6323489125500

BEFORE : access address is [0x7ecb0000, line 0x7ecb0000]
	[0x7f050000, line 0x7f050000] : 6323370208000
	[0x7ecb0000, line 0x7ecb0000] : 6323489125500

BEFORE : access address is [0x7ecc0000, line 0x7ecc0000]
	[0x7f050000, line 0x7f050000] : 6323370208000
	[0x7ecb0000, line 0x7ecb0000] : 6323489125500

AFTER : access address is [0x7ecc0000, line 0x7ecc0000]
	[0x7f050000, line 0x7f050000] : 6323370208000
	[0x7ecb0000, line 0x7ecb0000] : 6323489125500
	[0x7ecc0000, line 0x7ecc0000] : 6323495748000

BEFORE : access address is [0x7ecc0000, line 0x7ecc0000]
	[0x7f050000, line 0x7f050000] : 6323370208000
	[0x7ecb0000, line 0x7ecb0000] : 6323489125500
	[0x7ecc0000, line 0x7ecc0000] : 6323495748000

BEFORE : access address is [0x7ed30000, line 0x7ed30000]
	[0x7f050000, line 0x7f050000] : 6323370208000
	[0x7ecb0000, line 0x7ecb0000] : 6323489125500
	[0x7ecc0000, line 0x7ecc0000] : 6323495748000

AFTER : access address is [0x7ed30000, line 0x7ed30000]
	[0x7f050000, line 0x7f050000] : 6323370208000
	[0x7ecb0000, line 0x7ecb0000] : 6323489125500
	[0x7ecc0000, line 0x7ecc0000] : 6323495748000
	[0x7ed30000, line 0x7ed30000] : 6323559861000

BEFORE : access address is [0x76800000, line 0x76800000]
	[0x7f050000, line 0x7f050000] : 6323370208000
	[0x7ecb0000, line 0x7ecb0000] : 6323489125500
	[0x7ecc0000, line 0x7ecc0000] : 6323495748000
	[0x7ed30000, line 0x7ed30000] : 6323559861000

AFTER : access address is [0x76800000, line 0x76800000]
	[0x7f050000, line 0x7f050000] : 6323370208000
	[0x7ecb0000, line 0x7ecb0000] : 6323489125500
	[0x7ecc0000, line 0x7ecc0000] : 6323495748000
	[0x7ed30000, line 0x7ed30000] : 6323559861000
	[0x76800000, line 0x76800000] : 6323565270000

BEFORE : access address is [0x7ed30000, line 0x7ed30000]
	[0x7f050000, line 0x7f050000] : 6323370208000
	[0x7ecb0000, line 0x7ecb0000] : 6323489125500
	[0x7ecc0000, line 0x7ecc0000] : 6323495748000
	[0x7ed30000, line 0x7ed30000] : 6323559861000
	[0x76800000, line 0x76800000] : 6323565270000

BEFORE : access address is [0x76800000, line 0x76800000]
	[0x7f050000, line 0x7f050000] : 6323370208000
	[0x7ecb0000, line 0x7ecb0000] : 6323489125500
	[0x7ecc0000, line 0x7ecc0000] : 6323495748000
	[0x7ed30000, line 0x7ed30000] : 6323559861000
	[0x76800000, line 0x76800000] : 6323565270000

BEFORE : access address is [0x100000, line 0x100000]
	[0x7f050000, line 0x7f050000] : 6323370208000
	[0x7ecb0000, line 0x7ecb0000] : 6323489125500
	[0x7ecc0000, line 0x7ecc0000] : 6323495748000
	[0x7ed30000, line 0x7ed30000] : 6323559861000
	[0x76800000, line 0x76800000] : 6323565270000

AFTER : access address is [0x100000, line 0x100000]
	[0x7f050000, line 0x7f050000] : 6323370208000
	[0x7ecb0000, line 0x7ecb0000] : 6323489125500
	[0x7ecc0000, line 0x7ecc0000] : 6323495748000
	[0x7ed30000, line 0x7ed30000] : 6323559861000
	[0x76800000, line 0x76800000] : 6323565270000
	[0x100000, line 0x100000] : 6323662289000

BEFORE : access address is [0x100000, line 0x100000]
	[0x7f050000, line 0x7f050000] : 6323370208000
	[0x7ecb0000, line 0x7ecb0000] : 6323489125500
	[0x7ecc0000, line 0x7ecc0000] : 6323495748000
	[0x7ed30000, line 0x7ed30000] : 6323559861000
	[0x76800000, line 0x76800000] : 6323565270000
	[0x100000, line 0x100000] : 6323662289000

BEFORE : access address is [0x7e850000, line 0x7e850000]
	[0x7f050000, line 0x7f050000] : 6323370208000
	[0x7ecb0000, line 0x7ecb0000] : 6323489125500
	[0x7ecc0000, line 0x7ecc0000] : 6323495748000
	[0x7ed30000, line 0x7ed30000] : 6323559861000
	[0x76800000, line 0x76800000] : 6323565270000
	[0x100000, line 0x100000] : 6323662289000

AFTER : access address is [0x7e850000, line 0x7e850000]
	[0x7f050000, line 0x7f050000] : 6323370208000
	[0x7ecb0000, line 0x7ecb0000] : 6323489125500
	[0x7ecc0000, line 0x7ecc0000] : 6323495748000
	[0x7ed30000, line 0x7ed30000] : 6323559861000
	[0x76800000, line 0x76800000] : 6323565270000
	[0x100000, line 0x100000] : 6323662289000
	[0x7e850000, line 0x7e850000] : 6323702110500

BEFORE : access address is [0x7e850000, line 0x7e850000]
	[0x7f050000, line 0x7f050000] : 6323370208000
	[0x7ecb0000, line 0x7ecb0000] : 6323489125500
	[0x7ecc0000, line 0x7ecc0000] : 6323495748000
	[0x7ed30000, line 0x7ed30000] : 6323559861000
	[0x76800000, line 0x76800000] : 6323565270000
	[0x100000, line 0x100000] : 6323662289000
	[0x7e850000, line 0x7e850000] : 6323702110500

BEFORE : access address is [0x7ea60000, line 0x7ea60000]
	[0x7f050000, line 0x7f050000] : 6323370208000
	[0x7ecb0000, line 0x7ecb0000] : 6323489125500
	[0x7ecc0000, line 0x7ecc0000] : 6323495748000
	[0x7ed30000, line 0x7ed30000] : 6323559861000
	[0x76800000, line 0x76800000] : 6323565270000
	[0x100000, line 0x100000] : 6323662289000
	[0x7e850000, line 0x7e850000] : 6323702110500

AFTER : access address is [0x7ea60000, line 0x7ea60000]
	[0x7f050000, line 0x7f050000] : 6323370208000
	[0x7ecb0000, line 0x7ecb0000] : 6323489125500
	[0x7ecc0000, line 0x7ecc0000] : 6323495748000
	[0x7ed30000, line 0x7ed30000] : 6323559861000
	[0x76800000, line 0x76800000] : 6323565270000
	[0x100000, line 0x100000] : 6323662289000
	[0x7e850000, line 0x7e850000] : 6323702110500
	[0x7ea60000, line 0x7ea60000] : 6323762182500

BEFORE : access address is [0x7ea60000, line 0x7ea60000]
	[0x7f050000, line 0x7f050000] : 6323370208000
	[0x7ecb0000, line 0x7ecb0000] : 6323489125500
	[0x7ecc0000, line 0x7ecc0000] : 6323495748000
	[0x7ed30000, line 0x7ed30000] : 6323559861000
	[0x76800000, line 0x76800000] : 6323565270000
	[0x100000, line 0x100000] : 6323662289000
	[0x7e850000, line 0x7e850000] : 6323702110500
	[0x7ea60000, line 0x7ea60000] : 6323762182500

BEFORE : access address is [0x76ef0000, line 0x76ef0000]
	[0x7f050000, line 0x7f050000] : 6323370208000
	[0x7ecb0000, line 0x7ecb0000] : 6323489125500
	[0x7ecc0000, line 0x7ecc0000] : 6323495748000
	[0x7ed30000, line 0x7ed30000] : 6323559861000
	[0x76800000, line 0x76800000] : 6323565270000
	[0x100000, line 0x100000] : 6323662289000
	[0x7e850000, line 0x7e850000] : 6323702110500
	[0x7ea60000, line 0x7ea60000] : 6323762182500

AFTER : access address is [0x76ef0000, line 0x76ef0000]
	[0x7f050000, line 0x7f050000] : 6323370208000
	[0x7ecb0000, line 0x7ecb0000] : 6323489125500
	[0x7ecc0000, line 0x7ecc0000] : 6323495748000
	[0x7ed30000, line 0x7ed30000] : 6323559861000
	[0x76800000, line 0x76800000] : 6323565270000
	[0x100000, line 0x100000] : 6323662289000
	[0x7e850000, line 0x7e850000] : 6323702110500
	[0x7ea60000, line 0x7ea60000] : 6323762182500
	[0x76ef0000, line 0x76ef0000] : 6323809850500

BEFORE : access address is [0x71b60000, line 0x71b60000]
	[0x7f050000, line 0x7f050000] : 6323370208000
	[0x7ecb0000, line 0x7ecb0000] : 6323489125500
	[0x7ecc0000, line 0x7ecc0000] : 6323495748000
	[0x7ed30000, line 0x7ed30000] : 6323559861000
	[0x76800000, line 0x76800000] : 6323565270000
	[0x100000, line 0x100000] : 6323662289000
	[0x7e850000, line 0x7e850000] : 6323702110500
	[0x7ea60000, line 0x7ea60000] : 6323762182500
	[0x76ef0000, line 0x76ef0000] : 6323809850500

AFTER : access address is [0x71b60000, line 0x71b60000]
	[0x7f050000, line 0x7f050000] : 6323370208000
	[0x7ecb0000, line 0x7ecb0000] : 6323489125500
	[0x7ecc0000, line 0x7ecc0000] : 6323495748000
	[0x7ed30000, line 0x7ed30000] : 6323559861000
	[0x76800000, line 0x76800000] : 6323565270000
	[0x100000, line 0x100000] : 6323662289000
	[0x7e850000, line 0x7e850000] : 6323702110500
	[0x7ea60000, line 0x7ea60000] : 6323762182500
	[0x76ef0000, line 0x76ef0000] : 6323809850500
	[0x71b60000, line 0x71b60000] : 6323816139500

BEFORE : access address is [0x7e5a0000, line 0x7e5a0000]
	[0x7f050000, line 0x7f050000] : 6323370208000
	[0x7ecb0000, line 0x7ecb0000] : 6323489125500
	[0x7ecc0000, line 0x7ecc0000] : 6323495748000
	[0x7ed30000, line 0x7ed30000] : 6323559861000
	[0x76800000, line 0x76800000] : 6323565270000
	[0x100000, line 0x100000] : 6323662289000
	[0x7e850000, line 0x7e850000] : 6323702110500
	[0x7ea60000, line 0x7ea60000] : 6323762182500
	[0x76ef0000, line 0x76ef0000] : 6323809850500
	[0x71b60000, line 0x71b60000] : 6323816139500

AFTER : access address is [0x7e5a0000, line 0x7e5a0000]
	[0x7f050000, line 0x7f050000] : 6323370208000
	[0x7ecb0000, line 0x7ecb0000] : 6323489125500
	[0x7ecc0000, line 0x7ecc0000] : 6323495748000
	[0x7ed30000, line 0x7ed30000] : 6323559861000
	[0x76800000, line 0x76800000] : 6323565270000
	[0x100000, line 0x100000] : 6323662289000
	[0x7e850000, line 0x7e850000] : 6323702110500
	[0x7ea60000, line 0x7ea60000] : 6323762182500
	[0x76ef0000, line 0x76ef0000] : 6323809850500
	[0x71b60000, line 0x71b60000] : 6323816139500
	[0x7e5a0000, line 0x7e5a0000] : 6323863620000

BEFORE : access address is [0x71b60000, line 0x71b60000]
	[0x7f050000, line 0x7f050000] : 6323370208000
	[0x7ecb0000, line 0x7ecb0000] : 6323489125500
	[0x7ecc0000, line 0x7ecc0000] : 6323495748000
	[0x7ed30000, line 0x7ed30000] : 6323559861000
	[0x76800000, line 0x76800000] : 6323565270000
	[0x100000, line 0x100000] : 6323662289000
	[0x7e850000, line 0x7e850000] : 6323702110500
	[0x7ea60000, line 0x7ea60000] : 6323762182500
	[0x76ef0000, line 0x76ef0000] : 6323809850500
	[0x71b60000, line 0x71b60000] : 6323816139500
	[0x7e5a0000, line 0x7e5a0000] : 6323863620000

BEFORE : access address is [0x76ef0000, line 0x76ef0000]
	[0x7f050000, line 0x7f050000] : 6323370208000
	[0x7ecb0000, line 0x7ecb0000] : 6323489125500
	[0x7ecc0000, line 0x7ecc0000] : 6323495748000
	[0x7ed30000, line 0x7ed30000] : 6323559861000
	[0x76800000, line 0x76800000] : 6323565270000
	[0x100000, line 0x100000] : 6323662289000
	[0x7e850000, line 0x7e850000] : 6323702110500
	[0x7ea60000, line 0x7ea60000] : 6323762182500
	[0x76ef0000, line 0x76ef0000] : 6323809850500
	[0x71b60000, line 0x71b60000] : 6323816139500
	[0x7e5a0000, line 0x7e5a0000] : 6323863620000

BEFORE : access address is [0x7e5a0000, line 0x7e5a0000]
	[0x7f050000, line 0x7f050000] : 6323370208000
	[0x7ecb0000, line 0x7ecb0000] : 6323489125500
	[0x7ecc0000, line 0x7ecc0000] : 6323495748000
	[0x7ed30000, line 0x7ed30000] : 6323559861000
	[0x76800000, line 0x76800000] : 6323565270000
	[0x100000, line 0x100000] : 6323662289000
	[0x7e850000, line 0x7e850000] : 6323702110500
	[0x7ea60000, line 0x7ea60000] : 6323762182500
	[0x76ef0000, line 0x76ef0000] : 6323809850500
	[0x71b60000, line 0x71b60000] : 6323816139500
	[0x7e5a0000, line 0x7e5a0000] : 6323863620000

BEFORE : access address is [0x7e6c0000, line 0x7e6c0000]
	[0x7f050000, line 0x7f050000] : 6323370208000
	[0x7ecb0000, line 0x7ecb0000] : 6323489125500
	[0x7ecc0000, line 0x7ecc0000] : 6323495748000
	[0x7ed30000, line 0x7ed30000] : 6323559861000
	[0x76800000, line 0x76800000] : 6323565270000
	[0x100000, line 0x100000] : 6323662289000
	[0x7e850000, line 0x7e850000] : 6323702110500
	[0x7ea60000, line 0x7ea60000] : 6323762182500
	[0x76ef0000, line 0x76ef0000] : 6323809850500
	[0x71b60000, line 0x71b60000] : 6323816139500
	[0x7e5a0000, line 0x7e5a0000] : 6323863620000

AFTER : access address is [0x7e6c0000, line 0x7e6c0000]
	[0x7f050000, line 0x7f050000] : 6323370208000
	[0x7ecb0000, line 0x7ecb0000] : 6323489125500
	[0x7ecc0000, line 0x7ecc0000] : 6323495748000
	[0x7ed30000, line 0x7ed30000] : 6323559861000
	[0x76800000, line 0x76800000] : 6323565270000
	[0x100000, line 0x100000] : 6323662289000
	[0x7e850000, line 0x7e850000] : 6323702110500
	[0x7ea60000, line 0x7ea60000] : 6323762182500
	[0x76ef0000, line 0x76ef0000] : 6323809850500
	[0x71b60000, line 0x71b60000] : 6323816139500
	[0x7e5a0000, line 0x7e5a0000] : 6323863620000
	[0x7e6c0000, line 0x7e6c0000] : 6323946440500

BEFORE : access address is [0x7e6c0000, line 0x7e6c0000]
	[0x7f050000, line 0x7f050000] : 6323370208000
	[0x7ecb0000, line 0x7ecb0000] : 6323489125500
	[0x7ecc0000, line 0x7ecc0000] : 6323495748000
	[0x7ed30000, line 0x7ed30000] : 6323559861000
	[0x76800000, line 0x76800000] : 6323565270000
	[0x100000, line 0x100000] : 6323662289000
	[0x7e850000, line 0x7e850000] : 6323702110500
	[0x7ea60000, line 0x7ea60000] : 6323762182500
	[0x76ef0000, line 0x76ef0000] : 6323809850500
	[0x71b60000, line 0x71b60000] : 6323816139500
	[0x7e5a0000, line 0x7e5a0000] : 6323863620000
	[0x7e6c0000, line 0x7e6c0000] : 6323946440500

BEFORE : access address is [0x71b90000, line 0x71b90000]
	[0x7f050000, line 0x7f050000] : 6323370208000
	[0x7ecb0000, line 0x7ecb0000] : 6323489125500
	[0x7ecc0000, line 0x7ecc0000] : 6323495748000
	[0x7ed30000, line 0x7ed30000] : 6323559861000
	[0x76800000, line 0x76800000] : 6323565270000
	[0x100000, line 0x100000] : 6323662289000
	[0x7e850000, line 0x7e850000] : 6323702110500
	[0x7ea60000, line 0x7ea60000] : 6323762182500
	[0x76ef0000, line 0x76ef0000] : 6323809850500
	[0x71b60000, line 0x71b60000] : 6323816139500
	[0x7e5a0000, line 0x7e5a0000] : 6323863620000
	[0x7e6c0000, line 0x7e6c0000] : 6323946440500

AFTER : access address is [0x71b90000, line 0x71b90000]
	[0x7f050000, line 0x7f050000] : 6323370208000
	[0x7ecb0000, line 0x7ecb0000] : 6323489125500
	[0x7ecc0000, line 0x7ecc0000] : 6323495748000
	[0x7ed30000, line 0x7ed30000] : 6323559861000
	[0x76800000, line 0x76800000] : 6323565270000
	[0x100000, line 0x100000] : 6323662289000
	[0x7e850000, line 0x7e850000] : 6323702110500
	[0x7ea60000, line 0x7ea60000] : 6323762182500
	[0x76ef0000, line 0x76ef0000] : 6323809850500
	[0x71b60000, line 0x71b60000] : 6323816139500
	[0x7e5a0000, line 0x7e5a0000] : 6323863620000
	[0x7e6c0000, line 0x7e6c0000] : 6323946440500
	[0x71b90000, line 0x71b90000] : 6324015063000

BEFORE : access address is [0x71b90000, line 0x71b90000]
	[0x7f050000, line 0x7f050000] : 6323370208000
	[0x7ecb0000, line 0x7ecb0000] : 6323489125500
	[0x7ecc0000, line 0x7ecc0000] : 6323495748000
	[0x7ed30000, line 0x7ed30000] : 6323559861000
	[0x76800000, line 0x76800000] : 6323565270000
	[0x100000, line 0x100000] : 6323662289000
	[0x7e850000, line 0x7e850000] : 6323702110500
	[0x7ea60000, line 0x7ea60000] : 6323762182500
	[0x76ef0000, line 0x76ef0000] : 6323809850500
	[0x71b60000, line 0x71b60000] : 6323816139500
	[0x7e5a0000, line 0x7e5a0000] : 6323863620000
	[0x7e6c0000, line 0x7e6c0000] : 6323946440500
	[0x71b90000, line 0x71b90000] : 6324015063000

BEFORE : access address is [0x7e0f0000, line 0x7e0f0000]
	[0x7f050000, line 0x7f050000] : 6323370208000
	[0x7ecb0000, line 0x7ecb0000] : 6323489125500
	[0x7ecc0000, line 0x7ecc0000] : 6323495748000
	[0x7ed30000, line 0x7ed30000] : 6323559861000
	[0x76800000, line 0x76800000] : 6323565270000
	[0x100000, line 0x100000] : 6323662289000
	[0x7e850000, line 0x7e850000] : 6323702110500
	[0x7ea60000, line 0x7ea60000] : 6323762182500
	[0x76ef0000, line 0x76ef0000] : 6323809850500
	[0x71b60000, line 0x71b60000] : 6323816139500
	[0x7e5a0000, line 0x7e5a0000] : 6323863620000
	[0x7e6c0000, line 0x7e6c0000] : 6323946440500
	[0x71b90000, line 0x71b90000] : 6324015063000

AFTER : access address is [0x7e0f0000, line 0x7e0f0000]
	[0x7f050000, line 0x7f050000] : 6323370208000
	[0x7ecb0000, line 0x7ecb0000] : 6323489125500
	[0x7ecc0000, line 0x7ecc0000] : 6323495748000
	[0x7ed30000, line 0x7ed30000] : 6323559861000
	[0x76800000, line 0x76800000] : 6323565270000
	[0x100000, line 0x100000] : 6323662289000
	[0x7e850000, line 0x7e850000] : 6323702110500
	[0x7ea60000, line 0x7ea60000] : 6323762182500
	[0x76ef0000, line 0x76ef0000] : 6323809850500
	[0x71b60000, line 0x71b60000] : 6323816139500
	[0x7e5a0000, line 0x7e5a0000] : 6323863620000
	[0x7e6c0000, line 0x7e6c0000] : 6323946440500
	[0x71b90000, line 0x71b90000] : 6324015063000
	[0x7e0f0000, line 0x7e0f0000] : 6324089055500

BEFORE : access address is [0x7e0f0000, line 0x7e0f0000]
	[0x7f050000, line 0x7f050000] : 6323370208000
	[0x7ecb0000, line 0x7ecb0000] : 6323489125500
	[0x7ecc0000, line 0x7ecc0000] : 6323495748000
	[0x7ed30000, line 0x7ed30000] : 6323559861000
	[0x76800000, line 0x76800000] : 6323565270000
	[0x100000, line 0x100000] : 6323662289000
	[0x7e850000, line 0x7e850000] : 6323702110500
	[0x7ea60000, line 0x7ea60000] : 6323762182500
	[0x76ef0000, line 0x76ef0000] : 6323809850500
	[0x71b60000, line 0x71b60000] : 6323816139500
	[0x7e5a0000, line 0x7e5a0000] : 6323863620000
	[0x7e6c0000, line 0x7e6c0000] : 6323946440500
	[0x71b90000, line 0x71b90000] : 6324015063000
	[0x7e0f0000, line 0x7e0f0000] : 6324089055500

BEFORE : access address is [0x7e210000, line 0x7e210000]
	[0x7f050000, line 0x7f050000] : 6323370208000
	[0x7ecb0000, line 0x7ecb0000] : 6323489125500
	[0x7ecc0000, line 0x7ecc0000] : 6323495748000
	[0x7ed30000, line 0x7ed30000] : 6323559861000
	[0x76800000, line 0x76800000] : 6323565270000
	[0x100000, line 0x100000] : 6323662289000
	[0x7e850000, line 0x7e850000] : 6323702110500
	[0x7ea60000, line 0x7ea60000] : 6323762182500
	[0x76ef0000, line 0x76ef0000] : 6323809850500
	[0x71b60000, line 0x71b60000] : 6323816139500
	[0x7e5a0000, line 0x7e5a0000] : 6323863620000
	[0x7e6c0000, line 0x7e6c0000] : 6323946440500
	[0x71b90000, line 0x71b90000] : 6324015063000
	[0x7e0f0000, line 0x7e0f0000] : 6324089055500

AFTER : access address is [0x7e210000, line 0x7e210000]
	[0x7f050000, line 0x7f050000] : 6323370208000
	[0x7ecb0000, line 0x7ecb0000] : 6323489125500
	[0x7ecc0000, line 0x7ecc0000] : 6323495748000
	[0x7ed30000, line 0x7ed30000] : 6323559861000
	[0x76800000, line 0x76800000] : 6323565270000
	[0x100000, line 0x100000] : 6323662289000
	[0x7e850000, line 0x7e850000] : 6323702110500
	[0x7ea60000, line 0x7ea60000] : 6323762182500
	[0x76ef0000, line 0x76ef0000] : 6323809850500
	[0x71b60000, line 0x71b60000] : 6323816139500
	[0x7e5a0000, line 0x7e5a0000] : 6323863620000
	[0x7e6c0000, line 0x7e6c0000] : 6323946440500
	[0x71b90000, line 0x71b90000] : 6324015063000
	[0x7e0f0000, line 0x7e0f0000] : 6324089055500
	[0x7e210000, line 0x7e210000] : 6324178692500

BEFORE : access address is [0x7e210000, line 0x7e210000]
	[0x7f050000, line 0x7f050000] : 6323370208000
	[0x7ecb0000, line 0x7ecb0000] : 6323489125500
	[0x7ecc0000, line 0x7ecc0000] : 6323495748000
	[0x7ed30000, line 0x7ed30000] : 6323559861000
	[0x76800000, line 0x76800000] : 6323565270000
	[0x100000, line 0x100000] : 6323662289000
	[0x7e850000, line 0x7e850000] : 6323702110500
	[0x7ea60000, line 0x7ea60000] : 6323762182500
	[0x76ef0000, line 0x76ef0000] : 6323809850500
	[0x71b60000, line 0x71b60000] : 6323816139500
	[0x7e5a0000, line 0x7e5a0000] : 6323863620000
	[0x7e6c0000, line 0x7e6c0000] : 6323946440500
	[0x71b90000, line 0x71b90000] : 6324015063000
	[0x7e0f0000, line 0x7e0f0000] : 6324089055500
	[0x7e210000, line 0x7e210000] : 6324178692500

BEFORE : access address is [0x7e310000, line 0x7e310000]
	[0x7f050000, line 0x7f050000] : 6323370208000
	[0x7ecb0000, line 0x7ecb0000] : 6323489125500
	[0x7ecc0000, line 0x7ecc0000] : 6323495748000
	[0x7ed30000, line 0x7ed30000] : 6323559861000
	[0x76800000, line 0x76800000] : 6323565270000
	[0x100000, line 0x100000] : 6323662289000
	[0x7e850000, line 0x7e850000] : 6323702110500
	[0x7ea60000, line 0x7ea60000] : 6323762182500
	[0x76ef0000, line 0x76ef0000] : 6323809850500
	[0x71b60000, line 0x71b60000] : 6323816139500
	[0x7e5a0000, line 0x7e5a0000] : 6323863620000
	[0x7e6c0000, line 0x7e6c0000] : 6323946440500
	[0x71b90000, line 0x71b90000] : 6324015063000
	[0x7e0f0000, line 0x7e0f0000] : 6324089055500
	[0x7e210000, line 0x7e210000] : 6324178692500

AFTER : access address is [0x7e310000, line 0x7e310000]
	[0x7f050000, line 0x7f050000] : 6323370208000
	[0x7ecb0000, line 0x7ecb0000] : 6323489125500
	[0x7ecc0000, line 0x7ecc0000] : 6323495748000
	[0x7ed30000, line 0x7ed30000] : 6323559861000
	[0x76800000, line 0x76800000] : 6323565270000
	[0x100000, line 0x100000] : 6323662289000
	[0x7e850000, line 0x7e850000] : 6323702110500
	[0x7ea60000, line 0x7ea60000] : 6323762182500
	[0x76ef0000, line 0x76ef0000] : 6323809850500
	[0x71b60000, line 0x71b60000] : 6323816139500
	[0x7e5a0000, line 0x7e5a0000] : 6323863620000
	[0x7e6c0000, line 0x7e6c0000] : 6323946440500
	[0x71b90000, line 0x71b90000] : 6324015063000
	[0x7e0f0000, line 0x7e0f0000] : 6324089055500
	[0x7e210000, line 0x7e210000] : 6324178692500
	[0x7e310000, line 0x7e310000] : 6324199620000

BEFORE : access address is [0x7e310000, line 0x7e310000]
	[0x7f050000, line 0x7f050000] : 6323370208000
	[0x7ecb0000, line 0x7ecb0000] : 6323489125500
	[0x7ecc0000, line 0x7ecc0000] : 6323495748000
	[0x7ed30000, line 0x7ed30000] : 6323559861000
	[0x76800000, line 0x76800000] : 6323565270000
	[0x100000, line 0x100000] : 6323662289000
	[0x7e850000, line 0x7e850000] : 6323702110500
	[0x7ea60000, line 0x7ea60000] : 6323762182500
	[0x76ef0000, line 0x76ef0000] : 6323809850500
	[0x71b60000, line 0x71b60000] : 6323816139500
	[0x7e5a0000, line 0x7e5a0000] : 6323863620000
	[0x7e6c0000, line 0x7e6c0000] : 6323946440500
	[0x71b90000, line 0x71b90000] : 6324015063000
	[0x7e0f0000, line 0x7e0f0000] : 6324089055500
	[0x7e210000, line 0x7e210000] : 6324178692500
	[0x7e310000, line 0x7e310000] : 6324199620000

BEFORE : access address is [0x7dc20000, line 0x7dc20000]
	[0x7f050000, line 0x7f050000] : 6323370208000
	[0x7ecb0000, line 0x7ecb0000] : 6323489125500
	[0x7ecc0000, line 0x7ecc0000] : 6323495748000
	[0x7ed30000, line 0x7ed30000] : 6323559861000
	[0x76800000, line 0x76800000] : 6323565270000
	[0x100000, line 0x100000] : 6323662289000
	[0x7e850000, line 0x7e850000] : 6323702110500
	[0x7ea60000, line 0x7ea60000] : 6323762182500
	[0x76ef0000, line 0x76ef0000] : 6323809850500
	[0x71b60000, line 0x71b60000] : 6323816139500
	[0x7e5a0000, line 0x7e5a0000] : 6323863620000
	[0x7e6c0000, line 0x7e6c0000] : 6323946440500
	[0x71b90000, line 0x71b90000] : 6324015063000
	[0x7e0f0000, line 0x7e0f0000] : 6324089055500
	[0x7e210000, line 0x7e210000] : 6324178692500
	[0x7e310000, line 0x7e310000] : 6324199620000

BEFORE : access address is [0x7dc20000, line 0x7dc20000]
	[0x7ecb0000, line 0x7ecb0000] : 6323489125500
	[0x7ecc0000, line 0x7ecc0000] : 6323495748000
	[0x7ed30000, line 0x7ed30000] : 6323559861000
	[0x76800000, line 0x76800000] : 6323565270000
	[0x100000, line 0x100000] : 6323662289000
	[0x7e850000, line 0x7e850000] : 6323702110500
	[0x7ea60000, line 0x7ea60000] : 6323762182500
	[0x76ef0000, line 0x76ef0000] : 6323809850500
	[0x71b60000, line 0x71b60000] : 6323816139500
	[0x7e5a0000, line 0x7e5a0000] : 6323863620000
	[0x7e6c0000, line 0x7e6c0000] : 6323946440500
	[0x71b90000, line 0x71b90000] : 6324015063000
	[0x7e0f0000, line 0x7e0f0000] : 6324089055500
	[0x7e210000, line 0x7e210000] : 6324178692500
	[0x7e310000, line 0x7e310000] : 6324199620000

AFTER : access address is [0x7dc20000, line 0x7dc20000]
	[0x7dc20000, line 0x7dc20000] : 6324250092500
	[0x7ecb0000, line 0x7ecb0000] : 6323489125500
	[0x7ecc0000, line 0x7ecc0000] : 6323495748000
	[0x7ed30000, line 0x7ed30000] : 6323559861000
	[0x76800000, line 0x76800000] : 6323565270000
	[0x100000, line 0x100000] : 6323662289000
	[0x7e850000, line 0x7e850000] : 6323702110500
	[0x7ea60000, line 0x7ea60000] : 6323762182500
	[0x76ef0000, line 0x76ef0000] : 6323809850500
	[0x71b60000, line 0x71b60000] : 6323816139500
	[0x7e5a0000, line 0x7e5a0000] : 6323863620000
	[0x7e6c0000, line 0x7e6c0000] : 6323946440500
	[0x71b90000, line 0x71b90000] : 6324015063000
	[0x7e0f0000, line 0x7e0f0000] : 6324089055500
	[0x7e210000, line 0x7e210000] : 6324178692500
	[0x7e310000, line 0x7e310000] : 6324199620000

BEFORE : access address is [0x7dc20000, line 0x7dc20000]
	[0x7dc20000, line 0x7dc20000] : 6324250092500
	[0x7ecb0000, line 0x7ecb0000] : 6323489125500
	[0x7ecc0000, line 0x7ecc0000] : 6323495748000
	[0x7ed30000, line 0x7ed30000] : 6323559861000
	[0x76800000, line 0x76800000] : 6323565270000
	[0x100000, line 0x100000] : 6323662289000
	[0x7e850000, line 0x7e850000] : 6323702110500
	[0x7ea60000, line 0x7ea60000] : 6323762182500
	[0x76ef0000, line 0x76ef0000] : 6323809850500
	[0x71b60000, line 0x71b60000] : 6323816139500
	[0x7e5a0000, line 0x7e5a0000] : 6323863620000
	[0x7e6c0000, line 0x7e6c0000] : 6323946440500
	[0x71b90000, line 0x71b90000] : 6324015063000
	[0x7e0f0000, line 0x7e0f0000] : 6324089055500
	[0x7e210000, line 0x7e210000] : 6324178692500
	[0x7e310000, line 0x7e310000] : 6324199620000

BEFORE : access address is [0x7dd70000, line 0x7dd70000]
	[0x7dc20000, line 0x7dc20000] : 6324250092500
	[0x7ecb0000, line 0x7ecb0000] : 6323489125500
	[0x7ecc0000, line 0x7ecc0000] : 6323495748000
	[0x7ed30000, line 0x7ed30000] : 6323559861000
	[0x76800000, line 0x76800000] : 6323565270000
	[0x100000, line 0x100000] : 6323662289000
	[0x7e850000, line 0x7e850000] : 6323702110500
	[0x7ea60000, line 0x7ea60000] : 6323762182500
	[0x76ef0000, line 0x76ef0000] : 6323809850500
	[0x71b60000, line 0x71b60000] : 6323816139500
	[0x7e5a0000, line 0x7e5a0000] : 6323863620000
	[0x7e6c0000, line 0x7e6c0000] : 6323946440500
	[0x71b90000, line 0x71b90000] : 6324015063000
	[0x7e0f0000, line 0x7e0f0000] : 6324089055500
	[0x7e210000, line 0x7e210000] : 6324178692500
	[0x7e310000, line 0x7e310000] : 6324199620000

BEFORE : access address is [0x7dd70000, line 0x7dd70000]
	[0x7dc20000, line 0x7dc20000] : 6324250092500
	[0x7ecc0000, line 0x7ecc0000] : 6323495748000
	[0x7ed30000, line 0x7ed30000] : 6323559861000
	[0x76800000, line 0x76800000] : 6323565270000
	[0x100000, line 0x100000] : 6323662289000
	[0x7e850000, line 0x7e850000] : 6323702110500
	[0x7ea60000, line 0x7ea60000] : 6323762182500
	[0x76ef0000, line 0x76ef0000] : 6323809850500
	[0x71b60000, line 0x71b60000] : 6323816139500
	[0x7e5a0000, line 0x7e5a0000] : 6323863620000
	[0x7e6c0000, line 0x7e6c0000] : 6323946440500
	[0x71b90000, line 0x71b90000] : 6324015063000
	[0x7e0f0000, line 0x7e0f0000] : 6324089055500
	[0x7e210000, line 0x7e210000] : 6324178692500
	[0x7e310000, line 0x7e310000] : 6324199620000

AFTER : access address is [0x7dd70000, line 0x7dd70000]
	[0x7dc20000, line 0x7dc20000] : 6324250092500
	[0x7dd70000, line 0x7dd70000] : 6324389112500
	[0x7ecc0000, line 0x7ecc0000] : 6323495748000
	[0x7ed30000, line 0x7ed30000] : 6323559861000
	[0x76800000, line 0x76800000] : 6323565270000
	[0x100000, line 0x100000] : 6323662289000
	[0x7e850000, line 0x7e850000] : 6323702110500
	[0x7ea60000, line 0x7ea60000] : 6323762182500
	[0x76ef0000, line 0x76ef0000] : 6323809850500
	[0x71b60000, line 0x71b60000] : 6323816139500
	[0x7e5a0000, line 0x7e5a0000] : 6323863620000
	[0x7e6c0000, line 0x7e6c0000] : 6323946440500
	[0x71b90000, line 0x71b90000] : 6324015063000
	[0x7e0f0000, line 0x7e0f0000] : 6324089055500
	[0x7e210000, line 0x7e210000] : 6324178692500
	[0x7e310000, line 0x7e310000] : 6324199620000

BEFORE : access address is [0x7dd70000, line 0x7dd70000]
	[0x7dc20000, line 0x7dc20000] : 6324250092500
	[0x7dd70000, line 0x7dd70000] : 6324389112500
	[0x7ecc0000, line 0x7ecc0000] : 6323495748000
	[0x7ed30000, line 0x7ed30000] : 6323559861000
	[0x76800000, line 0x76800000] : 6323565270000
	[0x100000, line 0x100000] : 6323662289000
	[0x7e850000, line 0x7e850000] : 6323702110500
	[0x7ea60000, line 0x7ea60000] : 6323762182500
	[0x76ef0000, line 0x76ef0000] : 6323809850500
	[0x71b60000, line 0x71b60000] : 6323816139500
	[0x7e5a0000, line 0x7e5a0000] : 6323863620000
	[0x7e6c0000, line 0x7e6c0000] : 6323946440500
	[0x71b90000, line 0x71b90000] : 6324015063000
	[0x7e0f0000, line 0x7e0f0000] : 6324089055500
	[0x7e210000, line 0x7e210000] : 6324178692500
	[0x7e310000, line 0x7e310000] : 6324199620000

BEFORE : access address is [0x76810000, line 0x76810000]
	[0x7dc20000, line 0x7dc20000] : 6324250092500
	[0x7dd70000, line 0x7dd70000] : 6324389112500
	[0x7ecc0000, line 0x7ecc0000] : 6323495748000
	[0x7ed30000, line 0x7ed30000] : 6323559861000
	[0x76800000, line 0x76800000] : 6323565270000
	[0x100000, line 0x100000] : 6323662289000
	[0x7e850000, line 0x7e850000] : 6323702110500
	[0x7ea60000, line 0x7ea60000] : 6323762182500
	[0x76ef0000, line 0x76ef0000] : 6323809850500
	[0x71b60000, line 0x71b60000] : 6323816139500
	[0x7e5a0000, line 0x7e5a0000] : 6323863620000
	[0x7e6c0000, line 0x7e6c0000] : 6323946440500
	[0x71b90000, line 0x71b90000] : 6324015063000
	[0x7e0f0000, line 0x7e0f0000] : 6324089055500
	[0x7e210000, line 0x7e210000] : 6324178692500
	[0x7e310000, line 0x7e310000] : 6324199620000

BEFORE : access address is [0x76810000, line 0x76810000]
	[0x7dc20000, line 0x7dc20000] : 6324250092500
	[0x7dd70000, line 0x7dd70000] : 6324389112500
	[0x7ed30000, line 0x7ed30000] : 6323559861000
	[0x76800000, line 0x76800000] : 6323565270000
	[0x100000, line 0x100000] : 6323662289000
	[0x7e850000, line 0x7e850000] : 6323702110500
	[0x7ea60000, line 0x7ea60000] : 6323762182500
	[0x76ef0000, line 0x76ef0000] : 6323809850500
	[0x71b60000, line 0x71b60000] : 6323816139500
	[0x7e5a0000, line 0x7e5a0000] : 6323863620000
	[0x7e6c0000, line 0x7e6c0000] : 6323946440500
	[0x71b90000, line 0x71b90000] : 6324015063000
	[0x7e0f0000, line 0x7e0f0000] : 6324089055500
	[0x7e210000, line 0x7e210000] : 6324178692500
	[0x7e310000, line 0x7e310000] : 6324199620000

AFTER : access address is [0x76810000, line 0x76810000]
	[0x7dc20000, line 0x7dc20000] : 6324250092500
	[0x7dd70000, line 0x7dd70000] : 6324389112500
	[0x76810000, line 0x76810000] : 6324435023000
	[0x7ed30000, line 0x7ed30000] : 6323559861000
	[0x76800000, line 0x76800000] : 6323565270000
	[0x100000, line 0x100000] : 6323662289000
	[0x7e850000, line 0x7e850000] : 6323702110500
	[0x7ea60000, line 0x7ea60000] : 6323762182500
	[0x76ef0000, line 0x76ef0000] : 6323809850500
	[0x71b60000, line 0x71b60000] : 6323816139500
	[0x7e5a0000, line 0x7e5a0000] : 6323863620000
	[0x7e6c0000, line 0x7e6c0000] : 6323946440500
	[0x71b90000, line 0x71b90000] : 6324015063000
	[0x7e0f0000, line 0x7e0f0000] : 6324089055500
	[0x7e210000, line 0x7e210000] : 6324178692500
	[0x7e310000, line 0x7e310000] : 6324199620000

BEFORE : access address is [0x76810000, line 0x76810000]
	[0x7dc20000, line 0x7dc20000] : 6324250092500
	[0x7dd70000, line 0x7dd70000] : 6324389112500
	[0x76810000, line 0x76810000] : 6324435023000
	[0x7ed30000, line 0x7ed30000] : 6323559861000
	[0x76800000, line 0x76800000] : 6323565270000
	[0x100000, line 0x100000] : 6323662289000
	[0x7e850000, line 0x7e850000] : 6323702110500
	[0x7ea60000, line 0x7ea60000] : 6323762182500
	[0x76ef0000, line 0x76ef0000] : 6323809850500
	[0x71b60000, line 0x71b60000] : 6323816139500
	[0x7e5a0000, line 0x7e5a0000] : 6323863620000
	[0x7e6c0000, line 0x7e6c0000] : 6323946440500
	[0x71b90000, line 0x71b90000] : 6324015063000
	[0x7e0f0000, line 0x7e0f0000] : 6324089055500
	[0x7e210000, line 0x7e210000] : 6324178692500
	[0x7e310000, line 0x7e310000] : 6324199620000

BEFORE : access address is [0x7de80000, line 0x7de80000]
	[0x7dc20000, line 0x7dc20000] : 6324250092500
	[0x7dd70000, line 0x7dd70000] : 6324389112500
	[0x76810000, line 0x76810000] : 6324435023000
	[0x7ed30000, line 0x7ed30000] : 6323559861000
	[0x76800000, line 0x76800000] : 6323565270000
	[0x100000, line 0x100000] : 6323662289000
	[0x7e850000, line 0x7e850000] : 6323702110500
	[0x7ea60000, line 0x7ea60000] : 6323762182500
	[0x76ef0000, line 0x76ef0000] : 6323809850500
	[0x71b60000, line 0x71b60000] : 6323816139500
	[0x7e5a0000, line 0x7e5a0000] : 6323863620000
	[0x7e6c0000, line 0x7e6c0000] : 6323946440500
	[0x71b90000, line 0x71b90000] : 6324015063000
	[0x7e0f0000, line 0x7e0f0000] : 6324089055500
	[0x7e210000, line 0x7e210000] : 6324178692500
	[0x7e310000, line 0x7e310000] : 6324199620000

BEFORE : access address is [0x7de80000, line 0x7de80000]
	[0x7dc20000, line 0x7dc20000] : 6324250092500
	[0x7dd70000, line 0x7dd70000] : 6324389112500
	[0x76810000, line 0x76810000] : 6324435023000
	[0x76800000, line 0x76800000] : 6323565270000
	[0x100000, line 0x100000] : 6323662289000
	[0x7e850000, line 0x7e850000] : 6323702110500
	[0x7ea60000, line 0x7ea60000] : 6323762182500
	[0x76ef0000, line 0x76ef0000] : 6323809850500
	[0x71b60000, line 0x71b60000] : 6323816139500
	[0x7e5a0000, line 0x7e5a0000] : 6323863620000
	[0x7e6c0000, line 0x7e6c0000] : 6323946440500
	[0x71b90000, line 0x71b90000] : 6324015063000
	[0x7e0f0000, line 0x7e0f0000] : 6324089055500
	[0x7e210000, line 0x7e210000] : 6324178692500
	[0x7e310000, line 0x7e310000] : 6324199620000

AFTER : access address is [0x7de80000, line 0x7de80000]
	[0x7dc20000, line 0x7dc20000] : 6324250092500
	[0x7dd70000, line 0x7dd70000] : 6324389112500
	[0x76810000, line 0x76810000] : 6324435023000
	[0x7de80000, line 0x7de80000] : 6324450971000
	[0x76800000, line 0x76800000] : 6323565270000
	[0x100000, line 0x100000] : 6323662289000
	[0x7e850000, line 0x7e850000] : 6323702110500
	[0x7ea60000, line 0x7ea60000] : 6323762182500
	[0x76ef0000, line 0x76ef0000] : 6323809850500
	[0x71b60000, line 0x71b60000] : 6323816139500
	[0x7e5a0000, line 0x7e5a0000] : 6323863620000
	[0x7e6c0000, line 0x7e6c0000] : 6323946440500
	[0x71b90000, line 0x71b90000] : 6324015063000
	[0x7e0f0000, line 0x7e0f0000] : 6324089055500
	[0x7e210000, line 0x7e210000] : 6324178692500
	[0x7e310000, line 0x7e310000] : 6324199620000

BEFORE : access address is [0x7de80000, line 0x7de80000]
	[0x7dc20000, line 0x7dc20000] : 6324250092500
	[0x7dd70000, line 0x7dd70000] : 6324389112500
	[0x76810000, line 0x76810000] : 6324435023000
	[0x7de80000, line 0x7de80000] : 6324450971000
	[0x76800000, line 0x76800000] : 6323565270000
	[0x100000, line 0x100000] : 6323662289000
	[0x7e850000, line 0x7e850000] : 6323702110500
	[0x7ea60000, line 0x7ea60000] : 6323762182500
	[0x76ef0000, line 0x76ef0000] : 6323809850500
	[0x71b60000, line 0x71b60000] : 6323816139500
	[0x7e5a0000, line 0x7e5a0000] : 6323863620000
	[0x7e6c0000, line 0x7e6c0000] : 6323946440500
	[0x71b90000, line 0x71b90000] : 6324015063000
	[0x7e0f0000, line 0x7e0f0000] : 6324089055500
	[0x7e210000, line 0x7e210000] : 6324178692500
	[0x7e310000, line 0x7e310000] : 6324199620000

BEFORE : access address is [0x100000, line 0x100000]
	[0x7dc20000, line 0x7dc20000] : 6324250092500
	[0x7dd70000, line 0x7dd70000] : 6324389112500
	[0x76810000, line 0x76810000] : 6324435023000
	[0x7de80000, line 0x7de80000] : 6324450971000
	[0x76800000, line 0x76800000] : 6323565270000
	[0x100000, line 0x100000] : 6323662289000
	[0x7e850000, line 0x7e850000] : 6323702110500
	[0x7ea60000, line 0x7ea60000] : 6323762182500
	[0x76ef0000, line 0x76ef0000] : 6323809850500
	[0x71b60000, line 0x71b60000] : 6323816139500
	[0x7e5a0000, line 0x7e5a0000] : 6323863620000
	[0x7e6c0000, line 0x7e6c0000] : 6323946440500
	[0x71b90000, line 0x71b90000] : 6324015063000
	[0x7e0f0000, line 0x7e0f0000] : 6324089055500
	[0x7e210000, line 0x7e210000] : 6324178692500
	[0x7e310000, line 0x7e310000] : 6324199620000

AFTER : access address is [0x100000, line 0x100000]
	[0x7dc20000, line 0x7dc20000] : 6324250092500
	[0x7dd70000, line 0x7dd70000] : 6324389112500
	[0x76810000, line 0x76810000] : 6324435023000
	[0x7de80000, line 0x7de80000] : 6324450971000
	[0x76800000, line 0x76800000] : 6323565270000
	[0x100000, line 0x100000] : 6324586741000
	[0x7e850000, line 0x7e850000] : 6323702110500
	[0x7ea60000, line 0x7ea60000] : 6323762182500
	[0x76ef0000, line 0x76ef0000] : 6323809850500
	[0x71b60000, line 0x71b60000] : 6323816139500
	[0x7e5a0000, line 0x7e5a0000] : 6323863620000
	[0x7e6c0000, line 0x7e6c0000] : 6323946440500
	[0x71b90000, line 0x71b90000] : 6324015063000
	[0x7e0f0000, line 0x7e0f0000] : 6324089055500
	[0x7e210000, line 0x7e210000] : 6324178692500
	[0x7e310000, line 0x7e310000] : 6324199620000

BEFORE : access address is [0x100000, line 0x100000]
	[0x7dc20000, line 0x7dc20000] : 6324250092500
	[0x7dd70000, line 0x7dd70000] : 6324389112500
	[0x76810000, line 0x76810000] : 6324435023000
	[0x7de80000, line 0x7de80000] : 6324450971000
	[0x76800000, line 0x76800000] : 6323565270000
	[0x100000, line 0x100000] : 6324586741000
	[0x7e850000, line 0x7e850000] : 6323702110500
	[0x7ea60000, line 0x7ea60000] : 6323762182500
	[0x76ef0000, line 0x76ef0000] : 6323809850500
	[0x71b60000, line 0x71b60000] : 6323816139500
	[0x7e5a0000, line 0x7e5a0000] : 6323863620000
	[0x7e6c0000, line 0x7e6c0000] : 6323946440500
	[0x71b90000, line 0x71b90000] : 6324015063000
	[0x7e0f0000, line 0x7e0f0000] : 6324089055500
	[0x7e210000, line 0x7e210000] : 6324178692500
	[0x7e310000, line 0x7e310000] : 6324199620000

AFTER : access address is [0x100000, line 0x100000]
	[0x7dc20000, line 0x7dc20000] : 6324250092500
	[0x7dd70000, line 0x7dd70000] : 6324389112500
	[0x76810000, line 0x76810000] : 6324435023000
	[0x7de80000, line 0x7de80000] : 6324450971000
	[0x76800000, line 0x76800000] : 6323565270000
	[0x100000, line 0x100000] : 6324588629000
	[0x7e850000, line 0x7e850000] : 6323702110500
	[0x7ea60000, line 0x7ea60000] : 6323762182500
	[0x76ef0000, line 0x76ef0000] : 6323809850500
	[0x71b60000, line 0x71b60000] : 6323816139500
	[0x7e5a0000, line 0x7e5a0000] : 6323863620000
	[0x7e6c0000, line 0x7e6c0000] : 6323946440500
	[0x71b90000, line 0x71b90000] : 6324015063000
	[0x7e0f0000, line 0x7e0f0000] : 6324089055500
	[0x7e210000, line 0x7e210000] : 6324178692500
	[0x7e310000, line 0x7e310000] : 6324199620000

BEFORE : access address is [0x2fc0000, line 0x2fc0000]
	[0x7dc20000, line 0x7dc20000] : 6324250092500
	[0x7dd70000, line 0x7dd70000] : 6324389112500
	[0x76810000, line 0x76810000] : 6324435023000
	[0x7de80000, line 0x7de80000] : 6324450971000
	[0x76800000, line 0x76800000] : 6323565270000
	[0x100000, line 0x100000] : 6324588629000
	[0x7e850000, line 0x7e850000] : 6323702110500
	[0x7ea60000, line 0x7ea60000] : 6323762182500
	[0x76ef0000, line 0x76ef0000] : 6323809850500
	[0x71b60000, line 0x71b60000] : 6323816139500
	[0x7e5a0000, line 0x7e5a0000] : 6323863620000
	[0x7e6c0000, line 0x7e6c0000] : 6323946440500
	[0x71b90000, line 0x71b90000] : 6324015063000
	[0x7e0f0000, line 0x7e0f0000] : 6324089055500
	[0x7e210000, line 0x7e210000] : 6324178692500
	[0x7e310000, line 0x7e310000] : 6324199620000

BEFORE : access address is [0x2fc0000, line 0x2fc0000]
	[0x7dc20000, line 0x7dc20000] : 6324250092500
	[0x7dd70000, line 0x7dd70000] : 6324389112500
	[0x76810000, line 0x76810000] : 6324435023000
	[0x7de80000, line 0x7de80000] : 6324450971000
	[0x100000, line 0x100000] : 6324588629000
	[0x7e850000, line 0x7e850000] : 6323702110500
	[0x7ea60000, line 0x7ea60000] : 6323762182500
	[0x76ef0000, line 0x76ef0000] : 6323809850500
	[0x71b60000, line 0x71b60000] : 6323816139500
	[0x7e5a0000, line 0x7e5a0000] : 6323863620000
	[0x7e6c0000, line 0x7e6c0000] : 6323946440500
	[0x71b90000, line 0x71b90000] : 6324015063000
	[0x7e0f0000, line 0x7e0f0000] : 6324089055500
	[0x7e210000, line 0x7e210000] : 6324178692500
	[0x7e310000, line 0x7e310000] : 6324199620000

AFTER : access address is [0x2fc0000, line 0x2fc0000]
	[0x7dc20000, line 0x7dc20000] : 6324250092500
	[0x7dd70000, line 0x7dd70000] : 6324389112500
	[0x76810000, line 0x76810000] : 6324435023000
	[0x7de80000, line 0x7de80000] : 6324450971000
	[0x2fc0000, line 0x2fc0000] : 6324589813000
	[0x100000, line 0x100000] : 6324588629000
	[0x7e850000, line 0x7e850000] : 6323702110500
	[0x7ea60000, line 0x7ea60000] : 6323762182500
	[0x76ef0000, line 0x76ef0000] : 6323809850500
	[0x71b60000, line 0x71b60000] : 6323816139500
	[0x7e5a0000, line 0x7e5a0000] : 6323863620000
	[0x7e6c0000, line 0x7e6c0000] : 6323946440500
	[0x71b90000, line 0x71b90000] : 6324015063000
	[0x7e0f0000, line 0x7e0f0000] : 6324089055500
	[0x7e210000, line 0x7e210000] : 6324178692500
	[0x7e310000, line 0x7e310000] : 6324199620000

BEFORE : access address is [0x2fc0000, line 0x2fc0000]
	[0x7dc20000, line 0x7dc20000] : 6324250092500
	[0x7dd70000, line 0x7dd70000] : 6324389112500
	[0x76810000, line 0x76810000] : 6324435023000
	[0x7de80000, line 0x7de80000] : 6324450971000
	[0x2fc0000, line 0x2fc0000] : 6324589813000
	[0x100000, line 0x100000] : 6324588629000
	[0x7e850000, line 0x7e850000] : 6323702110500
	[0x7ea60000, line 0x7ea60000] : 6323762182500
	[0x76ef0000, line 0x76ef0000] : 6323809850500
	[0x71b60000, line 0x71b60000] : 6323816139500
	[0x7e5a0000, line 0x7e5a0000] : 6323863620000
	[0x7e6c0000, line 0x7e6c0000] : 6323946440500
	[0x71b90000, line 0x71b90000] : 6324015063000
	[0x7e0f0000, line 0x7e0f0000] : 6324089055500
	[0x7e210000, line 0x7e210000] : 6324178692500
	[0x7e310000, line 0x7e310000] : 6324199620000

BEFORE : access address is [0x2fc0000, line 0x2fc0000]
	[0x7dc20000, line 0x7dc20000] : 6324250092500
	[0x7dd70000, line 0x7dd70000] : 6324389112500
	[0x76810000, line 0x76810000] : 6324435023000
	[0x7de80000, line 0x7de80000] : 6324450971000
	[0x2fc0000, line 0x2fc0000] : 6324589813000
	[0x100000, line 0x100000] : 6324588629000
	[0x7e850000, line 0x7e850000] : 6323702110500
	[0x7ea60000, line 0x7ea60000] : 6323762182500
	[0x76ef0000, line 0x76ef0000] : 6323809850500
	[0x71b60000, line 0x71b60000] : 6323816139500
	[0x7e5a0000, line 0x7e5a0000] : 6323863620000
	[0x7e6c0000, line 0x7e6c0000] : 6323946440500
	[0x71b90000, line 0x71b90000] : 6324015063000
	[0x7e0f0000, line 0x7e0f0000] : 6324089055500
	[0x7e210000, line 0x7e210000] : 6324178692500
	[0x7e310000, line 0x7e310000] : 6324199620000

AFTER : access address is [0x2fc0000, line 0x2fc0000]
	[0x7dc20000, line 0x7dc20000] : 6324250092500
	[0x7dd70000, line 0x7dd70000] : 6324389112500
	[0x76810000, line 0x76810000] : 6324435023000
	[0x7de80000, line 0x7de80000] : 6324450971000
	[0x2fc0000, line 0x2fc0000] : 6324597537500
	[0x100000, line 0x100000] : 6324588629000
	[0x7e850000, line 0x7e850000] : 6323702110500
	[0x7ea60000, line 0x7ea60000] : 6323762182500
	[0x76ef0000, line 0x76ef0000] : 6323809850500
	[0x71b60000, line 0x71b60000] : 6323816139500
	[0x7e5a0000, line 0x7e5a0000] : 6323863620000
	[0x7e6c0000, line 0x7e6c0000] : 6323946440500
	[0x71b90000, line 0x71b90000] : 6324015063000
	[0x7e0f0000, line 0x7e0f0000] : 6324089055500
	[0x7e210000, line 0x7e210000] : 6324178692500
	[0x7e310000, line 0x7e310000] : 6324199620000

BEFORE : access address is [0x76f00000, line 0x76f00000]
	[0x7dc20000, line 0x7dc20000] : 6324250092500
	[0x7dd70000, line 0x7dd70000] : 6324389112500
	[0x76810000, line 0x76810000] : 6324435023000
	[0x7de80000, line 0x7de80000] : 6324450971000
	[0x2fc0000, line 0x2fc0000] : 6324597537500
	[0x100000, line 0x100000] : 6324588629000
	[0x7e850000, line 0x7e850000] : 6323702110500
	[0x7ea60000, line 0x7ea60000] : 6323762182500
	[0x76ef0000, line 0x76ef0000] : 6323809850500
	[0x71b60000, line 0x71b60000] : 6323816139500
	[0x7e5a0000, line 0x7e5a0000] : 6323863620000
	[0x7e6c0000, line 0x7e6c0000] : 6323946440500
	[0x71b90000, line 0x71b90000] : 6324015063000
	[0x7e0f0000, line 0x7e0f0000] : 6324089055500
	[0x7e210000, line 0x7e210000] : 6324178692500
	[0x7e310000, line 0x7e310000] : 6324199620000

BEFORE : access address is [0x76f00000, line 0x76f00000]
	[0x7dc20000, line 0x7dc20000] : 6324250092500
	[0x7dd70000, line 0x7dd70000] : 6324389112500
	[0x76810000, line 0x76810000] : 6324435023000
	[0x7de80000, line 0x7de80000] : 6324450971000
	[0x2fc0000, line 0x2fc0000] : 6324597537500
	[0x100000, line 0x100000] : 6324588629000
	[0x7ea60000, line 0x7ea60000] : 6323762182500
	[0x76ef0000, line 0x76ef0000] : 6323809850500
	[0x71b60000, line 0x71b60000] : 6323816139500
	[0x7e5a0000, line 0x7e5a0000] : 6323863620000
	[0x7e6c0000, line 0x7e6c0000] : 6323946440500
	[0x71b90000, line 0x71b90000] : 6324015063000
	[0x7e0f0000, line 0x7e0f0000] : 6324089055500
	[0x7e210000, line 0x7e210000] : 6324178692500
	[0x7e310000, line 0x7e310000] : 6324199620000

AFTER : access address is [0x76f00000, line 0x76f00000]
	[0x7dc20000, line 0x7dc20000] : 6324250092500
	[0x7dd70000, line 0x7dd70000] : 6324389112500
	[0x76810000, line 0x76810000] : 6324435023000
	[0x7de80000, line 0x7de80000] : 6324450971000
	[0x2fc0000, line 0x2fc0000] : 6324597537500
	[0x100000, line 0x100000] : 6324588629000
	[0x76f00000, line 0x76f00000] : 6324681718500
	[0x7ea60000, line 0x7ea60000] : 6323762182500
	[0x76ef0000, line 0x76ef0000] : 6323809850500
	[0x71b60000, line 0x71b60000] : 6323816139500
	[0x7e5a0000, line 0x7e5a0000] : 6323863620000
	[0x7e6c0000, line 0x7e6c0000] : 6323946440500
	[0x71b90000, line 0x71b90000] : 6324015063000
	[0x7e0f0000, line 0x7e0f0000] : 6324089055500
	[0x7e210000, line 0x7e210000] : 6324178692500
	[0x7e310000, line 0x7e310000] : 6324199620000

BEFORE : access address is [0x76f00000, line 0x76f00000]
	[0x7dc20000, line 0x7dc20000] : 6324250092500
	[0x7dd70000, line 0x7dd70000] : 6324389112500
	[0x76810000, line 0x76810000] : 6324435023000
	[0x7de80000, line 0x7de80000] : 6324450971000
	[0x2fc0000, line 0x2fc0000] : 6324597537500
	[0x100000, line 0x100000] : 6324588629000
	[0x76f00000, line 0x76f00000] : 6324681718500
	[0x7ea60000, line 0x7ea60000] : 6323762182500
	[0x76ef0000, line 0x76ef0000] : 6323809850500
	[0x71b60000, line 0x71b60000] : 6323816139500
	[0x7e5a0000, line 0x7e5a0000] : 6323863620000
	[0x7e6c0000, line 0x7e6c0000] : 6323946440500
	[0x71b90000, line 0x71b90000] : 6324015063000
	[0x7e0f0000, line 0x7e0f0000] : 6324089055500
	[0x7e210000, line 0x7e210000] : 6324178692500
	[0x7e310000, line 0x7e310000] : 6324199620000

BEFORE : access address is [0x76f00000, line 0x76f00000]
	[0x7dc20000, line 0x7dc20000] : 6324250092500
	[0x7dd70000, line 0x7dd70000] : 6324389112500
	[0x76810000, line 0x76810000] : 6324435023000
	[0x7de80000, line 0x7de80000] : 6324450971000
	[0x2fc0000, line 0x2fc0000] : 6324597537500
	[0x100000, line 0x100000] : 6324588629000
	[0x76f00000, line 0x76f00000] : 6324681718500
	[0x7ea60000, line 0x7ea60000] : 6323762182500
	[0x76ef0000, line 0x76ef0000] : 6323809850500
	[0x71b60000, line 0x71b60000] : 6323816139500
	[0x7e5a0000, line 0x7e5a0000] : 6323863620000
	[0x7e6c0000, line 0x7e6c0000] : 6323946440500
	[0x71b90000, line 0x71b90000] : 6324015063000
	[0x7e0f0000, line 0x7e0f0000] : 6324089055500
	[0x7e210000, line 0x7e210000] : 6324178692500
	[0x7e310000, line 0x7e310000] : 6324199620000

AFTER : access address is [0x76f00000, line 0x76f00000]
	[0x7dc20000, line 0x7dc20000] : 6324250092500
	[0x7dd70000, line 0x7dd70000] : 6324389112500
	[0x76810000, line 0x76810000] : 6324435023000
	[0x7de80000, line 0x7de80000] : 6324450971000
	[0x2fc0000, line 0x2fc0000] : 6324597537500
	[0x100000, line 0x100000] : 6324588629000
	[0x76f00000, line 0x76f00000] : 6324684586000
	[0x7ea60000, line 0x7ea60000] : 6323762182500
	[0x76ef0000, line 0x76ef0000] : 6323809850500
	[0x71b60000, line 0x71b60000] : 6323816139500
	[0x7e5a0000, line 0x7e5a0000] : 6323863620000
	[0x7e6c0000, line 0x7e6c0000] : 6323946440500
	[0x71b90000, line 0x71b90000] : 6324015063000
	[0x7e0f0000, line 0x7e0f0000] : 6324089055500
	[0x7e210000, line 0x7e210000] : 6324178692500
	[0x7e310000, line 0x7e310000] : 6324199620000

BEFORE : access address is [0x73070000, line 0x73070000]
	[0x7dc20000, line 0x7dc20000] : 6324250092500
	[0x7dd70000, line 0x7dd70000] : 6324389112500
	[0x76810000, line 0x76810000] : 6324435023000
	[0x7de80000, line 0x7de80000] : 6324450971000
	[0x2fc0000, line 0x2fc0000] : 6324597537500
	[0x100000, line 0x100000] : 6324588629000
	[0x76f00000, line 0x76f00000] : 6324684586000
	[0x7ea60000, line 0x7ea60000] : 6323762182500
	[0x76ef0000, line 0x76ef0000] : 6323809850500
	[0x71b60000, line 0x71b60000] : 6323816139500
	[0x7e5a0000, line 0x7e5a0000] : 6323863620000
	[0x7e6c0000, line 0x7e6c0000] : 6323946440500
	[0x71b90000, line 0x71b90000] : 6324015063000
	[0x7e0f0000, line 0x7e0f0000] : 6324089055500
	[0x7e210000, line 0x7e210000] : 6324178692500
	[0x7e310000, line 0x7e310000] : 6324199620000

BEFORE : access address is [0x73070000, line 0x73070000]
	[0x7dc20000, line 0x7dc20000] : 6324250092500
	[0x7dd70000, line 0x7dd70000] : 6324389112500
	[0x76810000, line 0x76810000] : 6324435023000
	[0x7de80000, line 0x7de80000] : 6324450971000
	[0x2fc0000, line 0x2fc0000] : 6324597537500
	[0x100000, line 0x100000] : 6324588629000
	[0x76f00000, line 0x76f00000] : 6324684586000
	[0x76ef0000, line 0x76ef0000] : 6323809850500
	[0x71b60000, line 0x71b60000] : 6323816139500
	[0x7e5a0000, line 0x7e5a0000] : 6323863620000
	[0x7e6c0000, line 0x7e6c0000] : 6323946440500
	[0x71b90000, line 0x71b90000] : 6324015063000
	[0x7e0f0000, line 0x7e0f0000] : 6324089055500
	[0x7e210000, line 0x7e210000] : 6324178692500
	[0x7e310000, line 0x7e310000] : 6324199620000

AFTER : access address is [0x73070000, line 0x73070000]
	[0x7dc20000, line 0x7dc20000] : 6324250092500
	[0x7dd70000, line 0x7dd70000] : 6324389112500
	[0x76810000, line 0x76810000] : 6324435023000
	[0x7de80000, line 0x7de80000] : 6324450971000
	[0x2fc0000, line 0x2fc0000] : 6324597537500
	[0x100000, line 0x100000] : 6324588629000
	[0x76f00000, line 0x76f00000] : 6324684586000
	[0x73070000, line 0x73070000] : 6324784360500
	[0x76ef0000, line 0x76ef0000] : 6323809850500
	[0x71b60000, line 0x71b60000] : 6323816139500
	[0x7e5a0000, line 0x7e5a0000] : 6323863620000
	[0x7e6c0000, line 0x7e6c0000] : 6323946440500
	[0x71b90000, line 0x71b90000] : 6324015063000
	[0x7e0f0000, line 0x7e0f0000] : 6324089055500
	[0x7e210000, line 0x7e210000] : 6324178692500
	[0x7e310000, line 0x7e310000] : 6324199620000

BEFORE : access address is [0x7e490000, line 0x7e490000]
	[0x7dc20000, line 0x7dc20000] : 6324250092500
	[0x7dd70000, line 0x7dd70000] : 6324389112500
	[0x76810000, line 0x76810000] : 6324435023000
	[0x7de80000, line 0x7de80000] : 6324450971000
	[0x2fc0000, line 0x2fc0000] : 6324597537500
	[0x100000, line 0x100000] : 6324588629000
	[0x76f00000, line 0x76f00000] : 6324684586000
	[0x73070000, line 0x73070000] : 6324784360500
	[0x76ef0000, line 0x76ef0000] : 6323809850500
	[0x71b60000, line 0x71b60000] : 6323816139500
	[0x7e5a0000, line 0x7e5a0000] : 6323863620000
	[0x7e6c0000, line 0x7e6c0000] : 6323946440500
	[0x71b90000, line 0x71b90000] : 6324015063000
	[0x7e0f0000, line 0x7e0f0000] : 6324089055500
	[0x7e210000, line 0x7e210000] : 6324178692500
	[0x7e310000, line 0x7e310000] : 6324199620000

BEFORE : access address is [0x7e490000, line 0x7e490000]
	[0x7dc20000, line 0x7dc20000] : 6324250092500
	[0x7dd70000, line 0x7dd70000] : 6324389112500
	[0x76810000, line 0x76810000] : 6324435023000
	[0x7de80000, line 0x7de80000] : 6324450971000
	[0x2fc0000, line 0x2fc0000] : 6324597537500
	[0x100000, line 0x100000] : 6324588629000
	[0x76f00000, line 0x76f00000] : 6324684586000
	[0x73070000, line 0x73070000] : 6324784360500
	[0x71b60000, line 0x71b60000] : 6323816139500
	[0x7e5a0000, line 0x7e5a0000] : 6323863620000
	[0x7e6c0000, line 0x7e6c0000] : 6323946440500
	[0x71b90000, line 0x71b90000] : 6324015063000
	[0x7e0f0000, line 0x7e0f0000] : 6324089055500
	[0x7e210000, line 0x7e210000] : 6324178692500
	[0x7e310000, line 0x7e310000] : 6324199620000

AFTER : access address is [0x7e490000, line 0x7e490000]
	[0x7dc20000, line 0x7dc20000] : 6324250092500
	[0x7dd70000, line 0x7dd70000] : 6324389112500
	[0x76810000, line 0x76810000] : 6324435023000
	[0x7de80000, line 0x7de80000] : 6324450971000
	[0x2fc0000, line 0x2fc0000] : 6324597537500
	[0x100000, line 0x100000] : 6324588629000
	[0x76f00000, line 0x76f00000] : 6324684586000
	[0x73070000, line 0x73070000] : 6324784360500
	[0x7e490000, line 0x7e490000] : 6324784890000
	[0x71b60000, line 0x71b60000] : 6323816139500
	[0x7e5a0000, line 0x7e5a0000] : 6323863620000
	[0x7e6c0000, line 0x7e6c0000] : 6323946440500
	[0x71b90000, line 0x71b90000] : 6324015063000
	[0x7e0f0000, line 0x7e0f0000] : 6324089055500
	[0x7e210000, line 0x7e210000] : 6324178692500
	[0x7e310000, line 0x7e310000] : 6324199620000

BEFORE : access address is [0x73070000, line 0x73070000]
	[0x7dc20000, line 0x7dc20000] : 6324250092500
	[0x7dd70000, line 0x7dd70000] : 6324389112500
	[0x76810000, line 0x76810000] : 6324435023000
	[0x7de80000, line 0x7de80000] : 6324450971000
	[0x2fc0000, line 0x2fc0000] : 6324597537500
	[0x100000, line 0x100000] : 6324588629000
	[0x76f00000, line 0x76f00000] : 6324684586000
	[0x73070000, line 0x73070000] : 6324784360500
	[0x7e490000, line 0x7e490000] : 6324784890000
	[0x71b60000, line 0x71b60000] : 6323816139500
	[0x7e5a0000, line 0x7e5a0000] : 6323863620000
	[0x7e6c0000, line 0x7e6c0000] : 6323946440500
	[0x71b90000, line 0x71b90000] : 6324015063000
	[0x7e0f0000, line 0x7e0f0000] : 6324089055500
	[0x7e210000, line 0x7e210000] : 6324178692500
	[0x7e310000, line 0x7e310000] : 6324199620000

BEFORE : access address is [0x7daf0000, line 0x7daf0000]
	[0x7dc20000, line 0x7dc20000] : 6324250092500
	[0x7dd70000, line 0x7dd70000] : 6324389112500
	[0x76810000, line 0x76810000] : 6324435023000
	[0x7de80000, line 0x7de80000] : 6324450971000
	[0x2fc0000, line 0x2fc0000] : 6324597537500
	[0x100000, line 0x100000] : 6324588629000
	[0x76f00000, line 0x76f00000] : 6324684586000
	[0x73070000, line 0x73070000] : 6324784360500
	[0x7e490000, line 0x7e490000] : 6324784890000
	[0x71b60000, line 0x71b60000] : 6323816139500
	[0x7e5a0000, line 0x7e5a0000] : 6323863620000
	[0x7e6c0000, line 0x7e6c0000] : 6323946440500
	[0x71b90000, line 0x71b90000] : 6324015063000
	[0x7e0f0000, line 0x7e0f0000] : 6324089055500
	[0x7e210000, line 0x7e210000] : 6324178692500
	[0x7e310000, line 0x7e310000] : 6324199620000

BEFORE : access address is [0x7daf0000, line 0x7daf0000]
	[0x7dc20000, line 0x7dc20000] : 6324250092500
	[0x7dd70000, line 0x7dd70000] : 6324389112500
	[0x76810000, line 0x76810000] : 6324435023000
	[0x7de80000, line 0x7de80000] : 6324450971000
	[0x2fc0000, line 0x2fc0000] : 6324597537500
	[0x100000, line 0x100000] : 6324588629000
	[0x76f00000, line 0x76f00000] : 6324684586000
	[0x73070000, line 0x73070000] : 6324784360500
	[0x7e490000, line 0x7e490000] : 6324784890000
	[0x7e5a0000, line 0x7e5a0000] : 6323863620000
	[0x7e6c0000, line 0x7e6c0000] : 6323946440500
	[0x71b90000, line 0x71b90000] : 6324015063000
	[0x7e0f0000, line 0x7e0f0000] : 6324089055500
	[0x7e210000, line 0x7e210000] : 6324178692500
	[0x7e310000, line 0x7e310000] : 6324199620000

AFTER : access address is [0x7daf0000, line 0x7daf0000]
	[0x7dc20000, line 0x7dc20000] : 6324250092500
	[0x7dd70000, line 0x7dd70000] : 6324389112500
	[0x76810000, line 0x76810000] : 6324435023000
	[0x7de80000, line 0x7de80000] : 6324450971000
	[0x2fc0000, line 0x2fc0000] : 6324597537500
	[0x100000, line 0x100000] : 6324588629000
	[0x76f00000, line 0x76f00000] : 6324684586000
	[0x73070000, line 0x73070000] : 6324784360500
	[0x7e490000, line 0x7e490000] : 6324784890000
	[0x7daf0000, line 0x7daf0000] : 6324795366000
	[0x7e5a0000, line 0x7e5a0000] : 6323863620000
	[0x7e6c0000, line 0x7e6c0000] : 6323946440500
	[0x71b90000, line 0x71b90000] : 6324015063000
	[0x7e0f0000, line 0x7e0f0000] : 6324089055500
	[0x7e210000, line 0x7e210000] : 6324178692500
	[0x7e310000, line 0x7e310000] : 6324199620000

BEFORE : access address is [0x76f00000, line 0x76f00000]
	[0x7dc20000, line 0x7dc20000] : 6324250092500
	[0x7dd70000, line 0x7dd70000] : 6324389112500
	[0x76810000, line 0x76810000] : 6324435023000
	[0x7de80000, line 0x7de80000] : 6324450971000
	[0x2fc0000, line 0x2fc0000] : 6324597537500
	[0x100000, line 0x100000] : 6324588629000
	[0x76f00000, line 0x76f00000] : 6324684586000
	[0x73070000, line 0x73070000] : 6324784360500
	[0x7e490000, line 0x7e490000] : 6324784890000
	[0x7daf0000, line 0x7daf0000] : 6324795366000
	[0x7e5a0000, line 0x7e5a0000] : 6323863620000
	[0x7e6c0000, line 0x7e6c0000] : 6323946440500
	[0x71b90000, line 0x71b90000] : 6324015063000
	[0x7e0f0000, line 0x7e0f0000] : 6324089055500
	[0x7e210000, line 0x7e210000] : 6324178692500
	[0x7e310000, line 0x7e310000] : 6324199620000

BEFORE : access address is [0x7e490000, line 0x7e490000]
	[0x7dc20000, line 0x7dc20000] : 6324250092500
	[0x7dd70000, line 0x7dd70000] : 6324389112500
	[0x76810000, line 0x76810000] : 6324435023000
	[0x7de80000, line 0x7de80000] : 6324450971000
	[0x2fc0000, line 0x2fc0000] : 6324597537500
	[0x100000, line 0x100000] : 6324588629000
	[0x76f00000, line 0x76f00000] : 6324684586000
	[0x73070000, line 0x73070000] : 6324784360500
	[0x7e490000, line 0x7e490000] : 6324784890000
	[0x7daf0000, line 0x7daf0000] : 6324795366000
	[0x7e5a0000, line 0x7e5a0000] : 6323863620000
	[0x7e6c0000, line 0x7e6c0000] : 6323946440500
	[0x71b90000, line 0x71b90000] : 6324015063000
	[0x7e0f0000, line 0x7e0f0000] : 6324089055500
	[0x7e210000, line 0x7e210000] : 6324178692500
	[0x7e310000, line 0x7e310000] : 6324199620000

BEFORE : access address is [0x7daf0000, line 0x7daf0000]
	[0x7dc20000, line 0x7dc20000] : 6324250092500
	[0x7dd70000, line 0x7dd70000] : 6324389112500
	[0x76810000, line 0x76810000] : 6324435023000
	[0x7de80000, line 0x7de80000] : 6324450971000
	[0x2fc0000, line 0x2fc0000] : 6324597537500
	[0x100000, line 0x100000] : 6324588629000
	[0x76f00000, line 0x76f00000] : 6324684586000
	[0x73070000, line 0x73070000] : 6324784360500
	[0x7e490000, line 0x7e490000] : 6324784890000
	[0x7daf0000, line 0x7daf0000] : 6324795366000
	[0x7e5a0000, line 0x7e5a0000] : 6323863620000
	[0x7e6c0000, line 0x7e6c0000] : 6323946440500
	[0x71b90000, line 0x71b90000] : 6324015063000
	[0x7e0f0000, line 0x7e0f0000] : 6324089055500
	[0x7e210000, line 0x7e210000] : 6324178692500
	[0x7e310000, line 0x7e310000] : 6324199620000

BEFORE : access address is [0x7dbe0000, line 0x7dbe0000]
	[0x7dc20000, line 0x7dc20000] : 6324250092500
	[0x7dd70000, line 0x7dd70000] : 6324389112500
	[0x76810000, line 0x76810000] : 6324435023000
	[0x7de80000, line 0x7de80000] : 6324450971000
	[0x2fc0000, line 0x2fc0000] : 6324597537500
	[0x100000, line 0x100000] : 6324588629000
	[0x76f00000, line 0x76f00000] : 6324684586000
	[0x73070000, line 0x73070000] : 6324784360500
	[0x7e490000, line 0x7e490000] : 6324784890000
	[0x7daf0000, line 0x7daf0000] : 6324795366000
	[0x7e5a0000, line 0x7e5a0000] : 6323863620000
	[0x7e6c0000, line 0x7e6c0000] : 6323946440500
	[0x71b90000, line 0x71b90000] : 6324015063000
	[0x7e0f0000, line 0x7e0f0000] : 6324089055500
	[0x7e210000, line 0x7e210000] : 6324178692500
	[0x7e310000, line 0x7e310000] : 6324199620000

BEFORE : access address is [0x7dbe0000, line 0x7dbe0000]
	[0x7dc20000, line 0x7dc20000] : 6324250092500
	[0x7dd70000, line 0x7dd70000] : 6324389112500
	[0x76810000, line 0x76810000] : 6324435023000
	[0x7de80000, line 0x7de80000] : 6324450971000
	[0x2fc0000, line 0x2fc0000] : 6324597537500
	[0x100000, line 0x100000] : 6324588629000
	[0x76f00000, line 0x76f00000] : 6324684586000
	[0x73070000, line 0x73070000] : 6324784360500
	[0x7e490000, line 0x7e490000] : 6324784890000
	[0x7daf0000, line 0x7daf0000] : 6324795366000
	[0x7e6c0000, line 0x7e6c0000] : 6323946440500
	[0x71b90000, line 0x71b90000] : 6324015063000
	[0x7e0f0000, line 0x7e0f0000] : 6324089055500
	[0x7e210000, line 0x7e210000] : 6324178692500
	[0x7e310000, line 0x7e310000] : 6324199620000

AFTER : access address is [0x7dbe0000, line 0x7dbe0000]
	[0x7dc20000, line 0x7dc20000] : 6324250092500
	[0x7dd70000, line 0x7dd70000] : 6324389112500
	[0x76810000, line 0x76810000] : 6324435023000
	[0x7de80000, line 0x7de80000] : 6324450971000
	[0x2fc0000, line 0x2fc0000] : 6324597537500
	[0x100000, line 0x100000] : 6324588629000
	[0x76f00000, line 0x76f00000] : 6324684586000
	[0x73070000, line 0x73070000] : 6324784360500
	[0x7e490000, line 0x7e490000] : 6324784890000
	[0x7daf0000, line 0x7daf0000] : 6324795366000
	[0x7dbe0000, line 0x7dbe0000] : 6324863333000
	[0x7e6c0000, line 0x7e6c0000] : 6323946440500
	[0x71b90000, line 0x71b90000] : 6324015063000
	[0x7e0f0000, line 0x7e0f0000] : 6324089055500
	[0x7e210000, line 0x7e210000] : 6324178692500
	[0x7e310000, line 0x7e310000] : 6324199620000

BEFORE : access address is [0x7dbe0000, line 0x7dbe0000]
	[0x7dc20000, line 0x7dc20000] : 6324250092500
	[0x7dd70000, line 0x7dd70000] : 6324389112500
	[0x76810000, line 0x76810000] : 6324435023000
	[0x7de80000, line 0x7de80000] : 6324450971000
	[0x2fc0000, line 0x2fc0000] : 6324597537500
	[0x100000, line 0x100000] : 6324588629000
	[0x76f00000, line 0x76f00000] : 6324684586000
	[0x73070000, line 0x73070000] : 6324784360500
	[0x7e490000, line 0x7e490000] : 6324784890000
	[0x7daf0000, line 0x7daf0000] : 6324795366000
	[0x7dbe0000, line 0x7dbe0000] : 6324863333000
	[0x7e6c0000, line 0x7e6c0000] : 6323946440500
	[0x71b90000, line 0x71b90000] : 6324015063000
	[0x7e0f0000, line 0x7e0f0000] : 6324089055500
	[0x7e210000, line 0x7e210000] : 6324178692500
	[0x7e310000, line 0x7e310000] : 6324199620000

BEFORE : access address is [0x7d530000, line 0x7d530000]
	[0x7dc20000, line 0x7dc20000] : 6324250092500
	[0x7dd70000, line 0x7dd70000] : 6324389112500
	[0x76810000, line 0x76810000] : 6324435023000
	[0x7de80000, line 0x7de80000] : 6324450971000
	[0x2fc0000, line 0x2fc0000] : 6324597537500
	[0x100000, line 0x100000] : 6324588629000
	[0x76f00000, line 0x76f00000] : 6324684586000
	[0x73070000, line 0x73070000] : 6324784360500
	[0x7e490000, line 0x7e490000] : 6324784890000
	[0x7daf0000, line 0x7daf0000] : 6324795366000
	[0x7dbe0000, line 0x7dbe0000] : 6324863333000
	[0x7e6c0000, line 0x7e6c0000] : 6323946440500
	[0x71b90000, line 0x71b90000] : 6324015063000
	[0x7e0f0000, line 0x7e0f0000] : 6324089055500
	[0x7e210000, line 0x7e210000] : 6324178692500
	[0x7e310000, line 0x7e310000] : 6324199620000

BEFORE : access address is [0x7d530000, line 0x7d530000]
	[0x7dc20000, line 0x7dc20000] : 6324250092500
	[0x7dd70000, line 0x7dd70000] : 6324389112500
	[0x76810000, line 0x76810000] : 6324435023000
	[0x7de80000, line 0x7de80000] : 6324450971000
	[0x2fc0000, line 0x2fc0000] : 6324597537500
	[0x100000, line 0x100000] : 6324588629000
	[0x76f00000, line 0x76f00000] : 6324684586000
	[0x73070000, line 0x73070000] : 6324784360500
	[0x7e490000, line 0x7e490000] : 6324784890000
	[0x7daf0000, line 0x7daf0000] : 6324795366000
	[0x7dbe0000, line 0x7dbe0000] : 6324863333000
	[0x71b90000, line 0x71b90000] : 6324015063000
	[0x7e0f0000, line 0x7e0f0000] : 6324089055500
	[0x7e210000, line 0x7e210000] : 6324178692500
	[0x7e310000, line 0x7e310000] : 6324199620000

AFTER : access address is [0x7d530000, line 0x7d530000]
	[0x7dc20000, line 0x7dc20000] : 6324250092500
	[0x7dd70000, line 0x7dd70000] : 6324389112500
	[0x76810000, line 0x76810000] : 6324435023000
	[0x7de80000, line 0x7de80000] : 6324450971000
	[0x2fc0000, line 0x2fc0000] : 6324597537500
	[0x100000, line 0x100000] : 6324588629000
	[0x76f00000, line 0x76f00000] : 6324684586000
	[0x73070000, line 0x73070000] : 6324784360500
	[0x7e490000, line 0x7e490000] : 6324784890000
	[0x7daf0000, line 0x7daf0000] : 6324795366000
	[0x7dbe0000, line 0x7dbe0000] : 6324863333000
	[0x7d530000, line 0x7d530000] : 6325071400000
	[0x71b90000, line 0x71b90000] : 6324015063000
	[0x7e0f0000, line 0x7e0f0000] : 6324089055500
	[0x7e210000, line 0x7e210000] : 6324178692500
	[0x7e310000, line 0x7e310000] : 6324199620000

BEFORE : access address is [0x7d530000, line 0x7d530000]
	[0x7dc20000, line 0x7dc20000] : 6324250092500
	[0x7dd70000, line 0x7dd70000] : 6324389112500
	[0x76810000, line 0x76810000] : 6324435023000
	[0x7de80000, line 0x7de80000] : 6324450971000
	[0x2fc0000, line 0x2fc0000] : 6324597537500
	[0x100000, line 0x100000] : 6324588629000
	[0x76f00000, line 0x76f00000] : 6324684586000
	[0x73070000, line 0x73070000] : 6324784360500
	[0x7e490000, line 0x7e490000] : 6324784890000
	[0x7daf0000, line 0x7daf0000] : 6324795366000
	[0x7dbe0000, line 0x7dbe0000] : 6324863333000
	[0x7d530000, line 0x7d530000] : 6325071400000
	[0x71b90000, line 0x71b90000] : 6324015063000
	[0x7e0f0000, line 0x7e0f0000] : 6324089055500
	[0x7e210000, line 0x7e210000] : 6324178692500
	[0x7e310000, line 0x7e310000] : 6324199620000

BEFORE : access address is [0x7d630000, line 0x7d630000]
	[0x7dc20000, line 0x7dc20000] : 6324250092500
	[0x7dd70000, line 0x7dd70000] : 6324389112500
	[0x76810000, line 0x76810000] : 6324435023000
	[0x7de80000, line 0x7de80000] : 6324450971000
	[0x2fc0000, line 0x2fc0000] : 6324597537500
	[0x100000, line 0x100000] : 6324588629000
	[0x76f00000, line 0x76f00000] : 6324684586000
	[0x73070000, line 0x73070000] : 6324784360500
	[0x7e490000, line 0x7e490000] : 6324784890000
	[0x7daf0000, line 0x7daf0000] : 6324795366000
	[0x7dbe0000, line 0x7dbe0000] : 6324863333000
	[0x7d530000, line 0x7d530000] : 6325071400000
	[0x71b90000, line 0x71b90000] : 6324015063000
	[0x7e0f0000, line 0x7e0f0000] : 6324089055500
	[0x7e210000, line 0x7e210000] : 6324178692500
	[0x7e310000, line 0x7e310000] : 6324199620000

BEFORE : access address is [0x7d630000, line 0x7d630000]
	[0x7dc20000, line 0x7dc20000] : 6324250092500
	[0x7dd70000, line 0x7dd70000] : 6324389112500
	[0x76810000, line 0x76810000] : 6324435023000
	[0x7de80000, line 0x7de80000] : 6324450971000
	[0x2fc0000, line 0x2fc0000] : 6324597537500
	[0x100000, line 0x100000] : 6324588629000
	[0x76f00000, line 0x76f00000] : 6324684586000
	[0x73070000, line 0x73070000] : 6324784360500
	[0x7e490000, line 0x7e490000] : 6324784890000
	[0x7daf0000, line 0x7daf0000] : 6324795366000
	[0x7dbe0000, line 0x7dbe0000] : 6324863333000
	[0x7d530000, line 0x7d530000] : 6325071400000
	[0x7e0f0000, line 0x7e0f0000] : 6324089055500
	[0x7e210000, line 0x7e210000] : 6324178692500
	[0x7e310000, line 0x7e310000] : 6324199620000

AFTER : access address is [0x7d630000, line 0x7d630000]
	[0x7dc20000, line 0x7dc20000] : 6324250092500
	[0x7dd70000, line 0x7dd70000] : 6324389112500
	[0x76810000, line 0x76810000] : 6324435023000
	[0x7de80000, line 0x7de80000] : 6324450971000
	[0x2fc0000, line 0x2fc0000] : 6324597537500
	[0x100000, line 0x100000] : 6324588629000
	[0x76f00000, line 0x76f00000] : 6324684586000
	[0x73070000, line 0x73070000] : 6324784360500
	[0x7e490000, line 0x7e490000] : 6324784890000
	[0x7daf0000, line 0x7daf0000] : 6324795366000
	[0x7dbe0000, line 0x7dbe0000] : 6324863333000
	[0x7d530000, line 0x7d530000] : 6325071400000
	[0x7d630000, line 0x7d630000] : 6325098813000
	[0x7e0f0000, line 0x7e0f0000] : 6324089055500
	[0x7e210000, line 0x7e210000] : 6324178692500
	[0x7e310000, line 0x7e310000] : 6324199620000

BEFORE : access address is [0x7d640000, line 0x7d640000]
	[0x7dc20000, line 0x7dc20000] : 6324250092500
	[0x7dd70000, line 0x7dd70000] : 6324389112500
	[0x76810000, line 0x76810000] : 6324435023000
	[0x7de80000, line 0x7de80000] : 6324450971000
	[0x2fc0000, line 0x2fc0000] : 6324597537500
	[0x100000, line 0x100000] : 6324588629000
	[0x76f00000, line 0x76f00000] : 6324684586000
	[0x73070000, line 0x73070000] : 6324784360500
	[0x7e490000, line 0x7e490000] : 6324784890000
	[0x7daf0000, line 0x7daf0000] : 6324795366000
	[0x7dbe0000, line 0x7dbe0000] : 6324863333000
	[0x7d530000, line 0x7d530000] : 6325071400000
	[0x7d630000, line 0x7d630000] : 6325098813000
	[0x7e0f0000, line 0x7e0f0000] : 6324089055500
	[0x7e210000, line 0x7e210000] : 6324178692500
	[0x7e310000, line 0x7e310000] : 6324199620000

BEFORE : access address is [0x7d640000, line 0x7d640000]
	[0x7dc20000, line 0x7dc20000] : 6324250092500
	[0x7dd70000, line 0x7dd70000] : 6324389112500
	[0x76810000, line 0x76810000] : 6324435023000
	[0x7de80000, line 0x7de80000] : 6324450971000
	[0x2fc0000, line 0x2fc0000] : 6324597537500
	[0x100000, line 0x100000] : 6324588629000
	[0x76f00000, line 0x76f00000] : 6324684586000
	[0x73070000, line 0x73070000] : 6324784360500
	[0x7e490000, line 0x7e490000] : 6324784890000
	[0x7daf0000, line 0x7daf0000] : 6324795366000
	[0x7dbe0000, line 0x7dbe0000] : 6324863333000
	[0x7d530000, line 0x7d530000] : 6325071400000
	[0x7d630000, line 0x7d630000] : 6325098813000
	[0x7e210000, line 0x7e210000] : 6324178692500
	[0x7e310000, line 0x7e310000] : 6324199620000

AFTER : access address is [0x7d640000, line 0x7d640000]
	[0x7dc20000, line 0x7dc20000] : 6324250092500
	[0x7dd70000, line 0x7dd70000] : 6324389112500
	[0x76810000, line 0x76810000] : 6324435023000
	[0x7de80000, line 0x7de80000] : 6324450971000
	[0x2fc0000, line 0x2fc0000] : 6324597537500
	[0x100000, line 0x100000] : 6324588629000
	[0x76f00000, line 0x76f00000] : 6324684586000
	[0x73070000, line 0x73070000] : 6324784360500
	[0x7e490000, line 0x7e490000] : 6324784890000
	[0x7daf0000, line 0x7daf0000] : 6324795366000
	[0x7dbe0000, line 0x7dbe0000] : 6324863333000
	[0x7d530000, line 0x7d530000] : 6325071400000
	[0x7d630000, line 0x7d630000] : 6325098813000
	[0x7d640000, line 0x7d640000] : 6325158237500
	[0x7e210000, line 0x7e210000] : 6324178692500
	[0x7e310000, line 0x7e310000] : 6324199620000

BEFORE : access address is [0x7d630000, line 0x7d630000]
	[0x7dc20000, line 0x7dc20000] : 6324250092500
	[0x7dd70000, line 0x7dd70000] : 6324389112500
	[0x76810000, line 0x76810000] : 6324435023000
	[0x7de80000, line 0x7de80000] : 6324450971000
	[0x2fc0000, line 0x2fc0000] : 6324597537500
	[0x100000, line 0x100000] : 6324588629000
	[0x76f00000, line 0x76f00000] : 6324684586000
	[0x73070000, line 0x73070000] : 6324784360500
	[0x7e490000, line 0x7e490000] : 6324784890000
	[0x7daf0000, line 0x7daf0000] : 6324795366000
	[0x7dbe0000, line 0x7dbe0000] : 6324863333000
	[0x7d530000, line 0x7d530000] : 6325071400000
	[0x7d630000, line 0x7d630000] : 6325098813000
	[0x7d640000, line 0x7d640000] : 6325158237500
	[0x7e210000, line 0x7e210000] : 6324178692500
	[0x7e310000, line 0x7e310000] : 6324199620000

BEFORE : access address is [0x7d640000, line 0x7d640000]
	[0x7dc20000, line 0x7dc20000] : 6324250092500
	[0x7dd70000, line 0x7dd70000] : 6324389112500
	[0x76810000, line 0x76810000] : 6324435023000
	[0x7de80000, line 0x7de80000] : 6324450971000
	[0x2fc0000, line 0x2fc0000] : 6324597537500
	[0x100000, line 0x100000] : 6324588629000
	[0x76f00000, line 0x76f00000] : 6324684586000
	[0x73070000, line 0x73070000] : 6324784360500
	[0x7e490000, line 0x7e490000] : 6324784890000
	[0x7daf0000, line 0x7daf0000] : 6324795366000
	[0x7dbe0000, line 0x7dbe0000] : 6324863333000
	[0x7d530000, line 0x7d530000] : 6325071400000
	[0x7d630000, line 0x7d630000] : 6325098813000
	[0x7d640000, line 0x7d640000] : 6325158237500
	[0x7e210000, line 0x7e210000] : 6324178692500
	[0x7e310000, line 0x7e310000] : 6324199620000

BEFORE : access address is [0x7ec60000, line 0x7ec60000]
	[0x7dc20000, line 0x7dc20000] : 6324250092500
	[0x7dd70000, line 0x7dd70000] : 6324389112500
	[0x76810000, line 0x76810000] : 6324435023000
	[0x7de80000, line 0x7de80000] : 6324450971000
	[0x2fc0000, line 0x2fc0000] : 6324597537500
	[0x100000, line 0x100000] : 6324588629000
	[0x76f00000, line 0x76f00000] : 6324684586000
	[0x73070000, line 0x73070000] : 6324784360500
	[0x7e490000, line 0x7e490000] : 6324784890000
	[0x7daf0000, line 0x7daf0000] : 6324795366000
	[0x7dbe0000, line 0x7dbe0000] : 6324863333000
	[0x7d530000, line 0x7d530000] : 6325071400000
	[0x7d630000, line 0x7d630000] : 6325098813000
	[0x7d640000, line 0x7d640000] : 6325158237500
	[0x7e210000, line 0x7e210000] : 6324178692500
	[0x7e310000, line 0x7e310000] : 6324199620000

BEFORE : access address is [0x7ec60000, line 0x7ec60000]
	[0x7dc20000, line 0x7dc20000] : 6324250092500
	[0x7dd70000, line 0x7dd70000] : 6324389112500
	[0x76810000, line 0x76810000] : 6324435023000
	[0x7de80000, line 0x7de80000] : 6324450971000
	[0x2fc0000, line 0x2fc0000] : 6324597537500
	[0x100000, line 0x100000] : 6324588629000
	[0x76f00000, line 0x76f00000] : 6324684586000
	[0x73070000, line 0x73070000] : 6324784360500
	[0x7e490000, line 0x7e490000] : 6324784890000
	[0x7daf0000, line 0x7daf0000] : 6324795366000
	[0x7dbe0000, line 0x7dbe0000] : 6324863333000
	[0x7d530000, line 0x7d530000] : 6325071400000
	[0x7d630000, line 0x7d630000] : 6325098813000
	[0x7d640000, line 0x7d640000] : 6325158237500
	[0x7e310000, line 0x7e310000] : 6324199620000

AFTER : access address is [0x7ec60000, line 0x7ec60000]
	[0x7dc20000, line 0x7dc20000] : 6324250092500
	[0x7dd70000, line 0x7dd70000] : 6324389112500
	[0x76810000, line 0x76810000] : 6324435023000
	[0x7de80000, line 0x7de80000] : 6324450971000
	[0x2fc0000, line 0x2fc0000] : 6324597537500
	[0x100000, line 0x100000] : 6324588629000
	[0x76f00000, line 0x76f00000] : 6324684586000
	[0x73070000, line 0x73070000] : 6324784360500
	[0x7e490000, line 0x7e490000] : 6324784890000
	[0x7daf0000, line 0x7daf0000] : 6324795366000
	[0x7dbe0000, line 0x7dbe0000] : 6324863333000
	[0x7d530000, line 0x7d530000] : 6325071400000
	[0x7d630000, line 0x7d630000] : 6325098813000
	[0x7d640000, line 0x7d640000] : 6325158237500
	[0x7ec60000, line 0x7ec60000] : 6325248021000
	[0x7e310000, line 0x7e310000] : 6324199620000

BEFORE : access address is [0x7ec60000, line 0x7ec60000]
	[0x7dc20000, line 0x7dc20000] : 6324250092500
	[0x7dd70000, line 0x7dd70000] : 6324389112500
	[0x76810000, line 0x76810000] : 6324435023000
	[0x7de80000, line 0x7de80000] : 6324450971000
	[0x2fc0000, line 0x2fc0000] : 6324597537500
	[0x100000, line 0x100000] : 6324588629000
	[0x76f00000, line 0x76f00000] : 6324684586000
	[0x73070000, line 0x73070000] : 6324784360500
	[0x7e490000, line 0x7e490000] : 6324784890000
	[0x7daf0000, line 0x7daf0000] : 6324795366000
	[0x7dbe0000, line 0x7dbe0000] : 6324863333000
	[0x7d530000, line 0x7d530000] : 6325071400000
	[0x7d630000, line 0x7d630000] : 6325098813000
	[0x7d640000, line 0x7d640000] : 6325158237500
	[0x7ec60000, line 0x7ec60000] : 6325248021000
	[0x7e310000, line 0x7e310000] : 6324199620000

BEFORE : access address is [0x76820000, line 0x76820000]
	[0x7dc20000, line 0x7dc20000] : 6324250092500
	[0x7dd70000, line 0x7dd70000] : 6324389112500
	[0x76810000, line 0x76810000] : 6324435023000
	[0x7de80000, line 0x7de80000] : 6324450971000
	[0x2fc0000, line 0x2fc0000] : 6324597537500
	[0x100000, line 0x100000] : 6324588629000
	[0x76f00000, line 0x76f00000] : 6324684586000
	[0x73070000, line 0x73070000] : 6324784360500
	[0x7e490000, line 0x7e490000] : 6324784890000
	[0x7daf0000, line 0x7daf0000] : 6324795366000
	[0x7dbe0000, line 0x7dbe0000] : 6324863333000
	[0x7d530000, line 0x7d530000] : 6325071400000
	[0x7d630000, line 0x7d630000] : 6325098813000
	[0x7d640000, line 0x7d640000] : 6325158237500
	[0x7ec60000, line 0x7ec60000] : 6325248021000
	[0x7e310000, line 0x7e310000] : 6324199620000

BEFORE : access address is [0x76820000, line 0x76820000]
	[0x7dc20000, line 0x7dc20000] : 6324250092500
	[0x7dd70000, line 0x7dd70000] : 6324389112500
	[0x76810000, line 0x76810000] : 6324435023000
	[0x7de80000, line 0x7de80000] : 6324450971000
	[0x2fc0000, line 0x2fc0000] : 6324597537500
	[0x100000, line 0x100000] : 6324588629000
	[0x76f00000, line 0x76f00000] : 6324684586000
	[0x73070000, line 0x73070000] : 6324784360500
	[0x7e490000, line 0x7e490000] : 6324784890000
	[0x7daf0000, line 0x7daf0000] : 6324795366000
	[0x7dbe0000, line 0x7dbe0000] : 6324863333000
	[0x7d530000, line 0x7d530000] : 6325071400000
	[0x7d630000, line 0x7d630000] : 6325098813000
	[0x7d640000, line 0x7d640000] : 6325158237500
	[0x7ec60000, line 0x7ec60000] : 6325248021000

AFTER : access address is [0x76820000, line 0x76820000]
	[0x7dc20000, line 0x7dc20000] : 6324250092500
	[0x7dd70000, line 0x7dd70000] : 6324389112500
	[0x76810000, line 0x76810000] : 6324435023000
	[0x7de80000, line 0x7de80000] : 6324450971000
	[0x2fc0000, line 0x2fc0000] : 6324597537500
	[0x100000, line 0x100000] : 6324588629000
	[0x76f00000, line 0x76f00000] : 6324684586000
	[0x73070000, line 0x73070000] : 6324784360500
	[0x7e490000, line 0x7e490000] : 6324784890000
	[0x7daf0000, line 0x7daf0000] : 6324795366000
	[0x7dbe0000, line 0x7dbe0000] : 6324863333000
	[0x7d530000, line 0x7d530000] : 6325071400000
	[0x7d630000, line 0x7d630000] : 6325098813000
	[0x7d640000, line 0x7d640000] : 6325158237500
	[0x7ec60000, line 0x7ec60000] : 6325248021000
	[0x76820000, line 0x76820000] : 6325318236000

BEFORE : access address is [0x76820000, line 0x76820000]
	[0x7dc20000, line 0x7dc20000] : 6324250092500
	[0x7dd70000, line 0x7dd70000] : 6324389112500
	[0x76810000, line 0x76810000] : 6324435023000
	[0x7de80000, line 0x7de80000] : 6324450971000
	[0x2fc0000, line 0x2fc0000] : 6324597537500
	[0x100000, line 0x100000] : 6324588629000
	[0x76f00000, line 0x76f00000] : 6324684586000
	[0x73070000, line 0x73070000] : 6324784360500
	[0x7e490000, line 0x7e490000] : 6324784890000
	[0x7daf0000, line 0x7daf0000] : 6324795366000
	[0x7dbe0000, line 0x7dbe0000] : 6324863333000
	[0x7d530000, line 0x7d530000] : 6325071400000
	[0x7d630000, line 0x7d630000] : 6325098813000
	[0x7d640000, line 0x7d640000] : 6325158237500
	[0x7ec60000, line 0x7ec60000] : 6325248021000
	[0x76820000, line 0x76820000] : 6325318236000

BEFORE : access address is [0x7e0e0000, line 0x7e0e0000]
	[0x7dc20000, line 0x7dc20000] : 6324250092500
	[0x7dd70000, line 0x7dd70000] : 6324389112500
	[0x76810000, line 0x76810000] : 6324435023000
	[0x7de80000, line 0x7de80000] : 6324450971000
	[0x2fc0000, line 0x2fc0000] : 6324597537500
	[0x100000, line 0x100000] : 6324588629000
	[0x76f00000, line 0x76f00000] : 6324684586000
	[0x73070000, line 0x73070000] : 6324784360500
	[0x7e490000, line 0x7e490000] : 6324784890000
	[0x7daf0000, line 0x7daf0000] : 6324795366000
	[0x7dbe0000, line 0x7dbe0000] : 6324863333000
	[0x7d530000, line 0x7d530000] : 6325071400000
	[0x7d630000, line 0x7d630000] : 6325098813000
	[0x7d640000, line 0x7d640000] : 6325158237500
	[0x7ec60000, line 0x7ec60000] : 6325248021000
	[0x76820000, line 0x76820000] : 6325318236000

BEFORE : access address is [0x7e0e0000, line 0x7e0e0000]
	[0x7dd70000, line 0x7dd70000] : 6324389112500
	[0x76810000, line 0x76810000] : 6324435023000
	[0x7de80000, line 0x7de80000] : 6324450971000
	[0x2fc0000, line 0x2fc0000] : 6324597537500
	[0x100000, line 0x100000] : 6324588629000
	[0x76f00000, line 0x76f00000] : 6324684586000
	[0x73070000, line 0x73070000] : 6324784360500
	[0x7e490000, line 0x7e490000] : 6324784890000
	[0x7daf0000, line 0x7daf0000] : 6324795366000
	[0x7dbe0000, line 0x7dbe0000] : 6324863333000
	[0x7d530000, line 0x7d530000] : 6325071400000
	[0x7d630000, line 0x7d630000] : 6325098813000
	[0x7d640000, line 0x7d640000] : 6325158237500
	[0x7ec60000, line 0x7ec60000] : 6325248021000
	[0x76820000, line 0x76820000] : 6325318236000

AFTER : access address is [0x7e0e0000, line 0x7e0e0000]
	[0x7e0e0000, line 0x7e0e0000] : 6325449039500
	[0x7dd70000, line 0x7dd70000] : 6324389112500
	[0x76810000, line 0x76810000] : 6324435023000
	[0x7de80000, line 0x7de80000] : 6324450971000
	[0x2fc0000, line 0x2fc0000] : 6324597537500
	[0x100000, line 0x100000] : 6324588629000
	[0x76f00000, line 0x76f00000] : 6324684586000
	[0x73070000, line 0x73070000] : 6324784360500
	[0x7e490000, line 0x7e490000] : 6324784890000
	[0x7daf0000, line 0x7daf0000] : 6324795366000
	[0x7dbe0000, line 0x7dbe0000] : 6324863333000
	[0x7d530000, line 0x7d530000] : 6325071400000
	[0x7d630000, line 0x7d630000] : 6325098813000
	[0x7d640000, line 0x7d640000] : 6325158237500
	[0x7ec60000, line 0x7ec60000] : 6325248021000
	[0x76820000, line 0x76820000] : 6325318236000

BEFORE : access address is [0x7e0e0000, line 0x7e0e0000]
	[0x7e0e0000, line 0x7e0e0000] : 6325449039500
	[0x7dd70000, line 0x7dd70000] : 6324389112500
	[0x76810000, line 0x76810000] : 6324435023000
	[0x7de80000, line 0x7de80000] : 6324450971000
	[0x2fc0000, line 0x2fc0000] : 6324597537500
	[0x100000, line 0x100000] : 6324588629000
	[0x76f00000, line 0x76f00000] : 6324684586000
	[0x73070000, line 0x73070000] : 6324784360500
[...]
	[0x7e960000, line 0x7e960000] : 6374153842000
	[0x76400000, line 0x76400000] : 6374183286500
	[0x76410000, line 0x76410000] : 6374488218500
	[0x735f0000, line 0x735f0000] : 6374744754000
	[0x73c00000, line 0x73c00000] : 6374257759000
	[0x7ecc0000, line 0x7ecc0000] : 6373364804500
	[0x737c0000, line 0x737c0000] : 6374521797500
	[0x7cc10000, line 0x7cc10000] : 6374701542500
	[0x7b410000, line 0x7b410000] : 6373539979000
	[0x7a210000, line 0x7a210000] : 6374481092000
	[0x76b00000, line 0x76b00000] : 6374725964500
	[0x100000, line 0x100000] : 6374101325500
	[0x7ecd0000, line 0x7ecd0000] : 6373755846500
	[0x7c6c0000, line 0x7c6c0000] : 6374472335000
	[0x76ae0000, line 0x76ae0000] : 6373553365000

AFTER : access address is [0x735f0000, line 0x735f0000]
	[0x73ad0000, line 0x73ad0000] : 6374030671000
	[0x7e960000, line 0x7e960000] : 6374153842000
	[0x76400000, line 0x76400000] : 6374183286500
	[0x76410000, line 0x76410000] : 6374488218500
	[0x735f0000, line 0x735f0000] : 6374862949000
	[0x73c00000, line 0x73c00000] : 6374257759000
	[0x7ecc0000, line 0x7ecc0000] : 6373364804500
	[0x737c0000, line 0x737c0000] : 6374521797500
	[0x7cc10000, line 0x7cc10000] : 6374701542500
	[0x7b410000, line 0x7b410000] : 6373539979000
	[0x7a210000, line 0x7a210000] : 6374481092000
	[0x76b00000, line 0x76b00000] : 6374725964500
	[0x100000, line 0x100000] : 6374101325500
	[0x7ecd0000, line 0x7ecd0000] : 6373755846500
	[0x7c6c0000, line 0x7c6c0000] : 6374472335000
	[0x76ae0000, line 0x76ae0000] : 6373553365000

BEFORE : access address is [0x735f0000, line 0x735f0000]
	[0x73ad0000, line 0x73ad0000] : 6374030671000
	[0x7e960000, line 0x7e960000] : 6374153842000
	[0x76400000, line 0x76400000] : 6374183286500
	[0x76410000, line 0x76410000] : 6374488218500
	[0x735f0000, line 0x735f0000] : 6374862949000
	[0x73c00000, line 0x73c00000] : 6374257759000
	[0x7ecc0000, line 0x7ecc0000] : 6373364804500
	[0x737c0000, line 0x737c0000] : 6374521797500
	[0x7cc10000, line 0x7cc10000] : 6374701542500
	[0x7b410000, line 0x7b410000] : 6373539979000
	[0x7a210000, line 0x7a210000] : 6374481092000
	[0x76b00000, line 0x76b00000] : 6374725964500
	[0x100000, line 0x100000] : 6374101325500
	[0x7ecd0000, line 0x7ecd0000] : 6373755846500
	[0x7c6c0000, line 0x7c6c0000] : 6374472335000
	[0x76ae0000, line 0x76ae0000] : 6373553365000

BEFORE : access address is [0x76b00000, line 0x76b00000]
	[0x73ad0000, line 0x73ad0000] : 6374030671000
	[0x7e960000, line 0x7e960000] : 6374153842000
	[0x76400000, line 0x76400000] : 6374183286500
	[0x76410000, line 0x76410000] : 6374488218500
	[0x735f0000, line 0x735f0000] : 6374862949000
	[0x73c00000, line 0x73c00000] : 6374257759000
	[0x7ecc0000, line 0x7ecc0000] : 6373364804500
	[0x737c0000, line 0x737c0000] : 6374521797500
	[0x7cc10000, line 0x7cc10000] : 6374701542500
	[0x7b410000, line 0x7b410000] : 6373539979000
	[0x7a210000, line 0x7a210000] : 6374481092000
	[0x76b00000, line 0x76b00000] : 6374725964500
	[0x100000, line 0x100000] : 6374101325500
	[0x7ecd0000, line 0x7ecd0000] : 6373755846500
	[0x7c6c0000, line 0x7c6c0000] : 6374472335000
	[0x76ae0000, line 0x76ae0000] : 6373553365000

BEFORE : access address is [0x735f0000, line 0x735f0000]
	[0x73ad0000, line 0x73ad0000] : 6374030671000
	[0x7e960000, line 0x7e960000] : 6374153842000
	[0x76400000, line 0x76400000] : 6374183286500
	[0x76410000, line 0x76410000] : 6374488218500
	[0x735f0000, line 0x735f0000] : 6374862949000
	[0x73c00000, line 0x73c00000] : 6374257759000
	[0x7ecc0000, line 0x7ecc0000] : 6373364804500
	[0x737c0000, line 0x737c0000] : 6374521797500
	[0x7cc10000, line 0x7cc10000] : 6374701542500
	[0x7b410000, line 0x7b410000] : 6373539979000
	[0x7a210000, line 0x7a210000] : 6374481092000
	[0x76b00000, line 0x76b00000] : 6374725964500
	[0x100000, line 0x100000] : 6374101325500
	[0x7ecd0000, line 0x7ecd0000] : 6373755846500
	[0x7c6c0000, line 0x7c6c0000] : 6374472335000
	[0x76ae0000, line 0x76ae0000] : 6373553365000

AFTER : access address is [0x735f0000, line 0x735f0000]
	[0x73ad0000, line 0x73ad0000] : 6374030671000
	[0x7e960000, line 0x7e960000] : 6374153842000
	[0x76400000, line 0x76400000] : 6374183286500
	[0x76410000, line 0x76410000] : 6374488218500
	[0x735f0000, line 0x735f0000] : 6374986131500
	[0x73c00000, line 0x73c00000] : 6374257759000
	[0x7ecc0000, line 0x7ecc0000] : 6373364804500
	[0x737c0000, line 0x737c0000] : 6374521797500
	[0x7cc10000, line 0x7cc10000] : 6374701542500
	[0x7b410000, line 0x7b410000] : 6373539979000
	[0x7a210000, line 0x7a210000] : 6374481092000
	[0x76b00000, line 0x76b00000] : 6374725964500
	[0x100000, line 0x100000] : 6374101325500
	[0x7ecd0000, line 0x7ecd0000] : 6373755846500
	[0x7c6c0000, line 0x7c6c0000] : 6374472335000
	[0x76ae0000, line 0x76ae0000] : 6373553365000

BEFORE : access address is [0x735f0000, line 0x735f0000]
	[0x73ad0000, line 0x73ad0000] : 6374030671000
	[0x7e960000, line 0x7e960000] : 6374153842000
	[0x76400000, line 0x76400000] : 6374183286500
	[0x76410000, line 0x76410000] : 6374488218500
	[0x735f0000, line 0x735f0000] : 6374986131500
	[0x73c00000, line 0x73c00000] : 6374257759000
	[0x7ecc0000, line 0x7ecc0000] : 6373364804500
	[0x737c0000, line 0x737c0000] : 6374521797500
	[0x7cc10000, line 0x7cc10000] : 6374701542500
	[0x7b410000, line 0x7b410000] : 6373539979000
	[0x7a210000, line 0x7a210000] : 6374481092000
	[0x76b00000, line 0x76b00000] : 6374725964500
	[0x100000, line 0x100000] : 6374101325500
	[0x7ecd0000, line 0x7ecd0000] : 6373755846500
	[0x7c6c0000, line 0x7c6c0000] : 6374472335000
	[0x76ae0000, line 0x76ae0000] : 6373553365000

BEFORE : access address is [0x7eea0000, line 0x7eea0000]
	[0x73ad0000, line 0x73ad0000] : 6374030671000
	[0x7e960000, line 0x7e960000] : 6374153842000
	[0x76400000, line 0x76400000] : 6374183286500
	[0x76410000, line 0x76410000] : 6374488218500
	[0x735f0000, line 0x735f0000] : 6374986131500
	[0x73c00000, line 0x73c00000] : 6374257759000
	[0x7ecc0000, line 0x7ecc0000] : 6373364804500
	[0x737c0000, line 0x737c0000] : 6374521797500
	[0x7cc10000, line 0x7cc10000] : 6374701542500
	[0x7b410000, line 0x7b410000] : 6373539979000
	[0x7a210000, line 0x7a210000] : 6374481092000
	[0x76b00000, line 0x76b00000] : 6374725964500
	[0x100000, line 0x100000] : 6374101325500
	[0x7ecd0000, line 0x7ecd0000] : 6373755846500
	[0x7c6c0000, line 0x7c6c0000] : 6374472335000
	[0x76ae0000, line 0x76ae0000] : 6373553365000

BEFORE : access address is [0x7eea0000, line 0x7eea0000]
	[0x73ad0000, line 0x73ad0000] : 6374030671000
	[0x7e960000, line 0x7e960000] : 6374153842000
	[0x76400000, line 0x76400000] : 6374183286500
	[0x76410000, line 0x76410000] : 6374488218500
	[0x735f0000, line 0x735f0000] : 6374986131500
	[0x73c00000, line 0x73c00000] : 6374257759000
	[0x737c0000, line 0x737c0000] : 6374521797500
	[0x7cc10000, line 0x7cc10000] : 6374701542500
	[0x7b410000, line 0x7b410000] : 6373539979000
	[0x7a210000, line 0x7a210000] : 6374481092000
	[0x76b00000, line 0x76b00000] : 6374725964500
	[0x100000, line 0x100000] : 6374101325500
	[0x7ecd0000, line 0x7ecd0000] : 6373755846500
	[0x7c6c0000, line 0x7c6c0000] : 6374472335000
	[0x76ae0000, line 0x76ae0000] : 6373553365000

AFTER : access address is [0x7eea0000, line 0x7eea0000]
	[0x73ad0000, line 0x73ad0000] : 6374030671000
	[0x7e960000, line 0x7e960000] : 6374153842000
	[0x76400000, line 0x76400000] : 6374183286500
	[0x76410000, line 0x76410000] : 6374488218500
	[0x735f0000, line 0x735f0000] : 6374986131500
	[0x73c00000, line 0x73c00000] : 6374257759000
	[0x7eea0000, line 0x7eea0000] : 6375068177000
	[0x737c0000, line 0x737c0000] : 6374521797500
	[0x7cc10000, line 0x7cc10000] : 6374701542500
	[0x7b410000, line 0x7b410000] : 6373539979000
	[0x7a210000, line 0x7a210000] : 6374481092000
	[0x76b00000, line 0x76b00000] : 6374725964500
	[0x100000, line 0x100000] : 6374101325500
	[0x7ecd0000, line 0x7ecd0000] : 6373755846500
	[0x7c6c0000, line 0x7c6c0000] : 6374472335000
	[0x76ae0000, line 0x76ae0000] : 6373553365000

BEFORE : access address is [0x7eea0000, line 0x7eea0000]
	[0x73ad0000, line 0x73ad0000] : 6374030671000
	[0x7e960000, line 0x7e960000] : 6374153842000
	[0x76400000, line 0x76400000] : 6374183286500
	[0x76410000, line 0x76410000] : 6374488218500
	[0x735f0000, line 0x735f0000] : 6374986131500
	[0x73c00000, line 0x73c00000] : 6374257759000
	[0x7eea0000, line 0x7eea0000] : 6375068177000
	[0x737c0000, line 0x737c0000] : 6374521797500
	[0x7cc10000, line 0x7cc10000] : 6374701542500
	[0x7b410000, line 0x7b410000] : 6373539979000
	[0x7a210000, line 0x7a210000] : 6374481092000
	[0x76b00000, line 0x76b00000] : 6374725964500
	[0x100000, line 0x100000] : 6374101325500
	[0x7ecd0000, line 0x7ecd0000] : 6373755846500
	[0x7c6c0000, line 0x7c6c0000] : 6374472335000
	[0x76ae0000, line 0x76ae0000] : 6373553365000

BEFORE : access address is [0x735f0000, line 0x735f0000]
	[0x73ad0000, line 0x73ad0000] : 6374030671000
	[0x7e960000, line 0x7e960000] : 6374153842000
	[0x76400000, line 0x76400000] : 6374183286500
	[0x76410000, line 0x76410000] : 6374488218500
	[0x735f0000, line 0x735f0000] : 6374986131500
	[0x73c00000, line 0x73c00000] : 6374257759000
	[0x7eea0000, line 0x7eea0000] : 6375068177000
	[0x737c0000, line 0x737c0000] : 6374521797500
	[0x7cc10000, line 0x7cc10000] : 6374701542500
	[0x7b410000, line 0x7b410000] : 6373539979000
	[0x7a210000, line 0x7a210000] : 6374481092000
	[0x76b00000, line 0x76b00000] : 6374725964500
	[0x100000, line 0x100000] : 6374101325500
	[0x7ecd0000, line 0x7ecd0000] : 6373755846500
	[0x7c6c0000, line 0x7c6c0000] : 6374472335000
	[0x76ae0000, line 0x76ae0000] : 6373553365000

AFTER : access address is [0x735f0000, line 0x735f0000]
	[0x73ad0000, line 0x73ad0000] : 6374030671000
	[0x7e960000, line 0x7e960000] : 6374153842000
	[0x76400000, line 0x76400000] : 6374183286500
	[0x76410000, line 0x76410000] : 6374488218500
	[0x735f0000, line 0x735f0000] : 6375090971500
	[0x73c00000, line 0x73c00000] : 6374257759000
	[0x7eea0000, line 0x7eea0000] : 6375068177000
	[0x737c0000, line 0x737c0000] : 6374521797500
	[0x7cc10000, line 0x7cc10000] : 6374701542500
	[0x7b410000, line 0x7b410000] : 6373539979000
	[0x7a210000, line 0x7a210000] : 6374481092000
	[0x76b00000, line 0x76b00000] : 6374725964500
	[0x100000, line 0x100000] : 6374101325500
	[0x7ecd0000, line 0x7ecd0000] : 6373755846500
	[0x7c6c0000, line 0x7c6c0000] : 6374472335000
	[0x76ae0000, line 0x76ae0000] : 6373553365000

BEFORE : access address is [0x735f0000, line 0x735f0000]
	[0x73ad0000, line 0x73ad0000] : 6374030671000
	[0x7e960000, line 0x7e960000] : 6374153842000
	[0x76400000, line 0x76400000] : 6374183286500
	[0x76410000, line 0x76410000] : 6374488218500
	[0x735f0000, line 0x735f0000] : 6375090971500
	[0x73c00000, line 0x73c00000] : 6374257759000
	[0x7eea0000, line 0x7eea0000] : 6375068177000
	[0x737c0000, line 0x737c0000] : 6374521797500
	[0x7cc10000, line 0x7cc10000] : 6374701542500
	[0x7b410000, line 0x7b410000] : 6373539979000
	[0x7a210000, line 0x7a210000] : 6374481092000
	[0x76b00000, line 0x76b00000] : 6374725964500
	[0x100000, line 0x100000] : 6374101325500
	[0x7ecd0000, line 0x7ecd0000] : 6373755846500
	[0x7c6c0000, line 0x7c6c0000] : 6374472335000
	[0x76ae0000, line 0x76ae0000] : 6373553365000

BEFORE : access address is [0x7dbf0000, line 0x7dbf0000]
	[0x73ad0000, line 0x73ad0000] : 6374030671000
	[0x7e960000, line 0x7e960000] : 6374153842000
	[0x76400000, line 0x76400000] : 6374183286500
	[0x76410000, line 0x76410000] : 6374488218500
	[0x735f0000, line 0x735f0000] : 6375090971500
	[0x73c00000, line 0x73c00000] : 6374257759000
	[0x7eea0000, line 0x7eea0000] : 6375068177000
	[0x737c0000, line 0x737c0000] : 6374521797500
	[0x7cc10000, line 0x7cc10000] : 6374701542500
	[0x7b410000, line 0x7b410000] : 6373539979000
	[0x7a210000, line 0x7a210000] : 6374481092000
	[0x76b00000, line 0x76b00000] : 6374725964500
	[0x100000, line 0x100000] : 6374101325500
	[0x7ecd0000, line 0x7ecd0000] : 6373755846500
	[0x7c6c0000, line 0x7c6c0000] : 6374472335000
	[0x76ae0000, line 0x76ae0000] : 6373553365000

BEFORE : access address is [0x7dbf0000, line 0x7dbf0000]
	[0x73ad0000, line 0x73ad0000] : 6374030671000
	[0x7e960000, line 0x7e960000] : 6374153842000
	[0x76400000, line 0x76400000] : 6374183286500
	[0x76410000, line 0x76410000] : 6374488218500
	[0x735f0000, line 0x735f0000] : 6375090971500
	[0x73c00000, line 0x73c00000] : 6374257759000
	[0x7eea0000, line 0x7eea0000] : 6375068177000
	[0x737c0000, line 0x737c0000] : 6374521797500
	[0x7cc10000, line 0x7cc10000] : 6374701542500
	[0x7a210000, line 0x7a210000] : 6374481092000
	[0x76b00000, line 0x76b00000] : 6374725964500
	[0x100000, line 0x100000] : 6374101325500
	[0x7ecd0000, line 0x7ecd0000] : 6373755846500
	[0x7c6c0000, line 0x7c6c0000] : 6374472335000
	[0x76ae0000, line 0x76ae0000] : 6373553365000

AFTER : access address is [0x7dbf0000, line 0x7dbf0000]
	[0x73ad0000, line 0x73ad0000] : 6374030671000
	[0x7e960000, line 0x7e960000] : 6374153842000
	[0x76400000, line 0x76400000] : 6374183286500
	[0x76410000, line 0x76410000] : 6374488218500
	[0x735f0000, line 0x735f0000] : 6375090971500
	[0x73c00000, line 0x73c00000] : 6374257759000
	[0x7eea0000, line 0x7eea0000] : 6375068177000
	[0x737c0000, line 0x737c0000] : 6374521797500
	[0x7cc10000, line 0x7cc10000] : 6374701542500
	[0x7dbf0000, line 0x7dbf0000] : 6375156830500
	[0x7a210000, line 0x7a210000] : 6374481092000
	[0x76b00000, line 0x76b00000] : 6374725964500
	[0x100000, line 0x100000] : 6374101325500
	[0x7ecd0000, line 0x7ecd0000] : 6373755846500
	[0x7c6c0000, line 0x7c6c0000] : 6374472335000
	[0x76ae0000, line 0x76ae0000] : 6373553365000

BEFORE : access address is [0x7dbf0000, line 0x7dbf0000]
	[0x73ad0000, line 0x73ad0000] : 6374030671000
	[0x7e960000, line 0x7e960000] : 6374153842000
	[0x76400000, line 0x76400000] : 6374183286500
	[0x76410000, line 0x76410000] : 6374488218500
	[0x735f0000, line 0x735f0000] : 6375090971500
	[0x73c00000, line 0x73c00000] : 6374257759000
	[0x7eea0000, line 0x7eea0000] : 6375068177000
	[0x737c0000, line 0x737c0000] : 6374521797500
	[0x7cc10000, line 0x7cc10000] : 6374701542500
	[0x7dbf0000, line 0x7dbf0000] : 6375156830500
	[0x7a210000, line 0x7a210000] : 6374481092000
	[0x76b00000, line 0x76b00000] : 6374725964500
	[0x100000, line 0x100000] : 6374101325500
	[0x7ecd0000, line 0x7ecd0000] : 6373755846500
	[0x7c6c0000, line 0x7c6c0000] : 6374472335000
	[0x76ae0000, line 0x76ae0000] : 6373553365000

BEFORE : access address is [0x73480000, line 0x73480000]
	[0x73ad0000, line 0x73ad0000] : 6374030671000
	[0x7e960000, line 0x7e960000] : 6374153842000
	[0x76400000, line 0x76400000] : 6374183286500
	[0x76410000, line 0x76410000] : 6374488218500
	[0x735f0000, line 0x735f0000] : 6375090971500
	[0x73c00000, line 0x73c00000] : 6374257759000
	[0x7eea0000, line 0x7eea0000] : 6375068177000
	[0x737c0000, line 0x737c0000] : 6374521797500
	[0x7cc10000, line 0x7cc10000] : 6374701542500
	[0x7dbf0000, line 0x7dbf0000] : 6375156830500
	[0x7a210000, line 0x7a210000] : 6374481092000
	[0x76b00000, line 0x76b00000] : 6374725964500
	[0x100000, line 0x100000] : 6374101325500
	[0x7ecd0000, line 0x7ecd0000] : 6373755846500
	[0x7c6c0000, line 0x7c6c0000] : 6374472335000
	[0x76ae0000, line 0x76ae0000] : 6373553365000

BEFORE : access address is [0x73480000, line 0x73480000]
	[0x73ad0000, line 0x73ad0000] : 6374030671000
	[0x7e960000, line 0x7e960000] : 6374153842000
	[0x76400000, line 0x76400000] : 6374183286500
	[0x76410000, line 0x76410000] : 6374488218500
	[0x735f0000, line 0x735f0000] : 6375090971500
	[0x73c00000, line 0x73c00000] : 6374257759000
	[0x7eea0000, line 0x7eea0000] : 6375068177000
	[0x737c0000, line 0x737c0000] : 6374521797500
	[0x7cc10000, line 0x7cc10000] : 6374701542500
	[0x7dbf0000, line 0x7dbf0000] : 6375156830500
	[0x7a210000, line 0x7a210000] : 6374481092000
	[0x76b00000, line 0x76b00000] : 6374725964500
	[0x100000, line 0x100000] : 6374101325500
	[0x7ecd0000, line 0x7ecd0000] : 6373755846500
	[0x7c6c0000, line 0x7c6c0000] : 6374472335000

AFTER : access address is [0x73480000, line 0x73480000]
	[0x73ad0000, line 0x73ad0000] : 6374030671000
	[0x7e960000, line 0x7e960000] : 6374153842000
	[0x76400000, line 0x76400000] : 6374183286500
	[0x76410000, line 0x76410000] : 6374488218500
	[0x735f0000, line 0x735f0000] : 6375090971500
	[0x73c00000, line 0x73c00000] : 6374257759000
	[0x7eea0000, line 0x7eea0000] : 6375068177000
	[0x737c0000, line 0x737c0000] : 6374521797500
	[0x7cc10000, line 0x7cc10000] : 6374701542500
	[0x7dbf0000, line 0x7dbf0000] : 6375156830500
	[0x7a210000, line 0x7a210000] : 6374481092000
	[0x76b00000, line 0x76b00000] : 6374725964500
	[0x100000, line 0x100000] : 6374101325500
	[0x7ecd0000, line 0x7ecd0000] : 6373755846500
	[0x7c6c0000, line 0x7c6c0000] : 6374472335000
	[0x73480000, line 0x73480000] : 6375197907000

BEFORE : access address is [0x735f0000, line 0x735f0000]
	[0x73ad0000, line 0x73ad0000] : 6374030671000
	[0x7e960000, line 0x7e960000] : 6374153842000
	[0x76400000, line 0x76400000] : 6374183286500
	[0x76410000, line 0x76410000] : 6374488218500
	[0x735f0000, line 0x735f0000] : 6375090971500
	[0x73c00000, line 0x73c00000] : 6374257759000
	[0x7eea0000, line 0x7eea0000] : 6375068177000
	[0x737c0000, line 0x737c0000] : 6374521797500
	[0x7cc10000, line 0x7cc10000] : 6374701542500
	[0x7dbf0000, line 0x7dbf0000] : 6375156830500
	[0x7a210000, line 0x7a210000] : 6374481092000
	[0x76b00000, line 0x76b00000] : 6374725964500
	[0x100000, line 0x100000] : 6374101325500
	[0x7ecd0000, line 0x7ecd0000] : 6373755846500
	[0x7c6c0000, line 0x7c6c0000] : 6374472335000
	[0x73480000, line 0x73480000] : 6375197907000

AFTER : access address is [0x735f0000, line 0x735f0000]
	[0x73ad0000, line 0x73ad0000] : 6374030671000
	[0x7e960000, line 0x7e960000] : 6374153842000
	[0x76400000, line 0x76400000] : 6374183286500
	[0x76410000, line 0x76410000] : 6374488218500
	[0x735f0000, line 0x735f0000] : 6375203766500
	[0x73c00000, line 0x73c00000] : 6374257759000
	[0x7eea0000, line 0x7eea0000] : 6375068177000
	[0x737c0000, line 0x737c0000] : 6374521797500
	[0x7cc10000, line 0x7cc10000] : 6374701542500
	[0x7dbf0000, line 0x7dbf0000] : 6375156830500
	[0x7a210000, line 0x7a210000] : 6374481092000
	[0x76b00000, line 0x76b00000] : 6374725964500
	[0x100000, line 0x100000] : 6374101325500
	[0x7ecd0000, line 0x7ecd0000] : 6373755846500
	[0x7c6c0000, line 0x7c6c0000] : 6374472335000
	[0x73480000, line 0x73480000] : 6375197907000

BEFORE : access address is [0x73480000, line 0x73480000]
	[0x73ad0000, line 0x73ad0000] : 6374030671000
	[0x7e960000, line 0x7e960000] : 6374153842000
	[0x76400000, line 0x76400000] : 6374183286500
	[0x76410000, line 0x76410000] : 6374488218500
	[0x735f0000, line 0x735f0000] : 6375203766500
	[0x73c00000, line 0x73c00000] : 6374257759000
	[0x7eea0000, line 0x7eea0000] : 6375068177000
	[0x737c0000, line 0x737c0000] : 6374521797500
	[0x7cc10000, line 0x7cc10000] : 6374701542500
	[0x7dbf0000, line 0x7dbf0000] : 6375156830500
	[0x7a210000, line 0x7a210000] : 6374481092000
	[0x76b00000, line 0x76b00000] : 6374725964500
	[0x100000, line 0x100000] : 6374101325500
	[0x7ecd0000, line 0x7ecd0000] : 6373755846500
	[0x7c6c0000, line 0x7c6c0000] : 6374472335000
	[0x73480000, line 0x73480000] : 6375197907000

BEFORE : access address is [0x735f0000, line 0x735f0000]
	[0x73ad0000, line 0x73ad0000] : 6374030671000
	[0x7e960000, line 0x7e960000] : 6374153842000
	[0x76400000, line 0x76400000] : 6374183286500
	[0x76410000, line 0x76410000] : 6374488218500
	[0x735f0000, line 0x735f0000] : 6375203766500
	[0x73c00000, line 0x73c00000] : 6374257759000
	[0x7eea0000, line 0x7eea0000] : 6375068177000
	[0x737c0000, line 0x737c0000] : 6374521797500
	[0x7cc10000, line 0x7cc10000] : 6374701542500
	[0x7dbf0000, line 0x7dbf0000] : 6375156830500
	[0x7a210000, line 0x7a210000] : 6374481092000
	[0x76b00000, line 0x76b00000] : 6374725964500
	[0x100000, line 0x100000] : 6374101325500
	[0x7ecd0000, line 0x7ecd0000] : 6373755846500
	[0x7c6c0000, line 0x7c6c0000] : 6374472335000
	[0x73480000, line 0x73480000] : 6375197907000

Exiting @ tick 6375244302000 because a thread reached the max instruction count
