gem5 Simulator System.  http://gem5.org
gem5 is copyrighted software; use the --copyright option for details.

gem5 compiled Mar 26 2013 13:01:22
gem5 started Mar 26 2013 18:29:31
gem5 executing on espresso
command line: ./build/X86_MESI_CMP_directory/gem5_LIP.opt -d m5out/X86_mcf/LIP/1Mb_cache/ configs/example/ruby_fs.py -n 4 --mem-size=2GB --ruby --caches --l2cache --l1d_size=32kB --l1i_size=32kB --l2_size=1MB --l1d_assoc=2 --l1i_assoc=2 --l2_assoc=16 --kernel=/home/arunkumar/full_system_images/x86_img/binaries/x86_64-vmlinux-2.6.22.9.smp --disk-image=/home/arunkumar/full_system_images/x86_img/disks/x86root.img --script=/home/arunkumar/gem5/configs/boot/spec_mcf.rcS --maxinsts=10000000 --checkpoint-dir=/home/arunkumar/gem5/m5out/X86_mcf/ --restore-with-cpu=timing -r 2
warning: add_child('terminal'): child 'terminal' already has parent
Global frequency set at 1000000000000 ticks per second
info: kernel located at: /home/arunkumar/full_system_images/x86_img/binaries/x86_64-vmlinux-2.6.22.9.smp
      0: rtc: Real-time clock set to Sun Jan  1 00:00:00 2012
**** REAL SIMULATION ****
info: Entering event queue @ 6323370021500.  Starting simulation...
BEFORE : access address is [0x7f050000, line 0x7f050000]

AFTER : access address is [0x7f050000, line 0x7f050000]
  [0x7f050000, line 0x7f050000] : 6323370208000

BEFORE : access address is [0x7f050000, line 0x7f050000]
	[0x7f050000, line 0x7f050000] : 6323370208000

BEFORE : access address is [0x7ecb0000, line 0x7ecb0000]
	[0x7f050000, line 0x7f050000] : 6323370208000

AFTER : access address is [0x7ecb0000, line 0x7ecb0000]
	[0x7f050000, line 0x7f050000] : 6323370208000
	[0x7ecb0000, line 0x7ecb0000] : 6323489125500

BEFORE : access address is [0x7ecb0000, line 0x7ecb0000]
	[0x7f050000, line 0x7f050000] : 6323370208000
	[0x7ecb0000, line 0x7ecb0000] : 6323489125500

BEFORE : access address is [0x7ecc0000, line 0x7ecc0000]
	[0x7f050000, line 0x7f050000] : 6323370208000
	[0x7ecb0000, line 0x7ecb0000] : 6323489125500

AFTER : access address is [0x7ecc0000, line 0x7ecc0000]
	[0x7f050000, line 0x7f050000] : 6323370208000
	[0x7ecb0000, line 0x7ecb0000] : 6323489125500
	[0x7ecc0000, line 0x7ecc0000] : 6323495748000

BEFORE : access address is [0x7ecc0000, line 0x7ecc0000]
	[0x7f050000, line 0x7f050000] : 6323370208000
	[0x7ecb0000, line 0x7ecb0000] : 6323489125500
	[0x7ecc0000, line 0x7ecc0000] : 6323495748000

BEFORE : access address is [0x7ed30000, line 0x7ed30000]
	[0x7f050000, line 0x7f050000] : 6323370208000
	[0x7ecb0000, line 0x7ecb0000] : 6323489125500
	[0x7ecc0000, line 0x7ecc0000] : 6323495748000

AFTER : access address is [0x7ed30000, line 0x7ed30000]
	[0x7f050000, line 0x7f050000] : 6323370208000
	[0x7ecb0000, line 0x7ecb0000] : 6323489125500
	[0x7ecc0000, line 0x7ecc0000] : 6323495748000
	[0x7ed30000, line 0x7ed30000] : 6323559861000

BEFORE : access address is [0x76800000, line 0x76800000]
	[0x7f050000, line 0x7f050000] : 6323370208000
	[0x7ecb0000, line 0x7ecb0000] : 6323489125500
	[0x7ecc0000, line 0x7ecc0000] : 6323495748000
	[0x7ed30000, line 0x7ed30000] : 6323559861000

AFTER : access address is [0x76800000, line 0x76800000]
	[0x7f050000, line 0x7f050000] : 6323370208000
	[0x7ecb0000, line 0x7ecb0000] : 6323489125500
	[0x7ecc0000, line 0x7ecc0000] : 6323495748000
	[0x7ed30000, line 0x7ed30000] : 6323559861000
	[0x76800000, line 0x76800000] : 6323565270000

BEFORE : access address is [0x7ed30000, line 0x7ed30000]
	[0x7f050000, line 0x7f050000] : 6323370208000
	[0x7ecb0000, line 0x7ecb0000] : 6323489125500
	[0x7ecc0000, line 0x7ecc0000] : 6323495748000
	[0x7ed30000, line 0x7ed30000] : 6323559861000
	[0x76800000, line 0x76800000] : 6323565270000

BEFORE : access address is [0x76800000, line 0x76800000]
	[0x7f050000, line 0x7f050000] : 6323370208000
	[0x7ecb0000, line 0x7ecb0000] : 6323489125500
	[0x7ecc0000, line 0x7ecc0000] : 6323495748000
	[0x7ed30000, line 0x7ed30000] : 6323559861000
	[0x76800000, line 0x76800000] : 6323565270000

BEFORE : access address is [0x100000, line 0x100000]
	[0x7f050000, line 0x7f050000] : 6323370208000
	[0x7ecb0000, line 0x7ecb0000] : 6323489125500
	[0x7ecc0000, line 0x7ecc0000] : 6323495748000
	[0x7ed30000, line 0x7ed30000] : 6323559861000
	[0x76800000, line 0x76800000] : 6323565270000

AFTER : access address is [0x100000, line 0x100000]
	[0x7f050000, line 0x7f050000] : 6323370208000
	[0x7ecb0000, line 0x7ecb0000] : 6323489125500
	[0x7ecc0000, line 0x7ecc0000] : 6323495748000
	[0x7ed30000, line 0x7ed30000] : 6323559861000
	[0x76800000, line 0x76800000] : 6323565270000
	[0x100000, line 0x100000] : 6323662289000

BEFORE : access address is [0x100000, line 0x100000]
	[0x7f050000, line 0x7f050000] : 6323370208000
	[0x7ecb0000, line 0x7ecb0000] : 6323489125500
	[0x7ecc0000, line 0x7ecc0000] : 6323495748000
	[0x7ed30000, line 0x7ed30000] : 6323559861000
	[0x76800000, line 0x76800000] : 6323565270000
	[0x100000, line 0x100000] : 6323662289000

BEFORE : access address is [0x7e850000, line 0x7e850000]
	[0x7f050000, line 0x7f050000] : 6323370208000
	[0x7ecb0000, line 0x7ecb0000] : 6323489125500
	[0x7ecc0000, line 0x7ecc0000] : 6323495748000
	[0x7ed30000, line 0x7ed30000] : 6323559861000
	[0x76800000, line 0x76800000] : 6323565270000
	[0x100000, line 0x100000] : 6323662289000

AFTER : access address is [0x7e850000, line 0x7e850000]
	[0x7f050000, line 0x7f050000] : 6323370208000
	[0x7ecb0000, line 0x7ecb0000] : 6323489125500
	[0x7ecc0000, line 0x7ecc0000] : 6323495748000
	[0x7ed30000, line 0x7ed30000] : 6323559861000
	[0x76800000, line 0x76800000] : 6323565270000
	[0x100000, line 0x100000] : 6323662289000
	[0x7e850000, line 0x7e850000] : 6323702110500

BEFORE : access address is [0x7e850000, line 0x7e850000]
	[0x7f050000, line 0x7f050000] : 6323370208000
	[0x7ecb0000, line 0x7ecb0000] : 6323489125500
	[0x7ecc0000, line 0x7ecc0000] : 6323495748000
	[0x7ed30000, line 0x7ed30000] : 6323559861000
	[0x76800000, line 0x76800000] : 6323565270000
	[0x100000, line 0x100000] : 6323662289000
	[0x7e850000, line 0x7e850000] : 6323702110500

BEFORE : access address is [0x7ea60000, line 0x7ea60000]
	[0x7f050000, line 0x7f050000] : 6323370208000
	[0x7ecb0000, line 0x7ecb0000] : 6323489125500
	[0x7ecc0000, line 0x7ecc0000] : 6323495748000
	[0x7ed30000, line 0x7ed30000] : 6323559861000
	[0x76800000, line 0x76800000] : 6323565270000
	[0x100000, line 0x100000] : 6323662289000
	[0x7e850000, line 0x7e850000] : 6323702110500

AFTER : access address is [0x7ea60000, line 0x7ea60000]
	[0x7f050000, line 0x7f050000] : 6323370208000
	[0x7ecb0000, line 0x7ecb0000] : 6323489125500
	[0x7ecc0000, line 0x7ecc0000] : 6323495748000
	[0x7ed30000, line 0x7ed30000] : 6323559861000
	[0x76800000, line 0x76800000] : 6323565270000
	[0x100000, line 0x100000] : 6323662289000
	[0x7e850000, line 0x7e850000] : 6323702110500
	[0x7ea60000, line 0x7ea60000] : 6323762182500

BEFORE : access address is [0x7ea60000, line 0x7ea60000]
	[0x7f050000, line 0x7f050000] : 6323370208000
	[0x7ecb0000, line 0x7ecb0000] : 6323489125500
	[0x7ecc0000, line 0x7ecc0000] : 6323495748000
	[0x7ed30000, line 0x7ed30000] : 6323559861000
	[0x76800000, line 0x76800000] : 6323565270000
	[0x100000, line 0x100000] : 6323662289000
	[0x7e850000, line 0x7e850000] : 6323702110500
	[0x7ea60000, line 0x7ea60000] : 6323762182500

BEFORE : access address is [0x76ef0000, line 0x76ef0000]
	[0x7f050000, line 0x7f050000] : 6323370208000
	[0x7ecb0000, line 0x7ecb0000] : 6323489125500
	[0x7ecc0000, line 0x7ecc0000] : 6323495748000
	[0x7ed30000, line 0x7ed30000] : 6323559861000
	[0x76800000, line 0x76800000] : 6323565270000
	[0x100000, line 0x100000] : 6323662289000
	[0x7e850000, line 0x7e850000] : 6323702110500
	[0x7ea60000, line 0x7ea60000] : 6323762182500

AFTER : access address is [0x76ef0000, line 0x76ef0000]
	[0x7f050000, line 0x7f050000] : 6323370208000
	[0x7ecb0000, line 0x7ecb0000] : 6323489125500
	[0x7ecc0000, line 0x7ecc0000] : 6323495748000
	[0x7ed30000, line 0x7ed30000] : 6323559861000
	[0x76800000, line 0x76800000] : 6323565270000
	[0x100000, line 0x100000] : 6323662289000
	[0x7e850000, line 0x7e850000] : 6323702110500
	[0x7ea60000, line 0x7ea60000] : 6323762182500
	[0x76ef0000, line 0x76ef0000] : 6323809850500

BEFORE : access address is [0x71b60000, line 0x71b60000]
	[0x7f050000, line 0x7f050000] : 6323370208000
	[0x7ecb0000, line 0x7ecb0000] : 6323489125500
	[0x7ecc0000, line 0x7ecc0000] : 6323495748000
	[0x7ed30000, line 0x7ed30000] : 6323559861000
	[0x76800000, line 0x76800000] : 6323565270000
	[0x100000, line 0x100000] : 6323662289000
	[0x7e850000, line 0x7e850000] : 6323702110500
	[0x7ea60000, line 0x7ea60000] : 6323762182500
	[0x76ef0000, line 0x76ef0000] : 6323809850500

AFTER : access address is [0x71b60000, line 0x71b60000]
	[0x7f050000, line 0x7f050000] : 6323370208000
	[0x7ecb0000, line 0x7ecb0000] : 6323489125500
	[0x7ecc0000, line 0x7ecc0000] : 6323495748000
	[0x7ed30000, line 0x7ed30000] : 6323559861000
	[0x76800000, line 0x76800000] : 6323565270000
	[0x100000, line 0x100000] : 6323662289000
	[0x7e850000, line 0x7e850000] : 6323702110500
	[0x7ea60000, line 0x7ea60000] : 6323762182500
	[0x76ef0000, line 0x76ef0000] : 6323809850500
	[0x71b60000, line 0x71b60000] : 6323816139500

BEFORE : access address is [0x7e5a0000, line 0x7e5a0000]
	[0x7f050000, line 0x7f050000] : 6323370208000
	[0x7ecb0000, line 0x7ecb0000] : 6323489125500
	[0x7ecc0000, line 0x7ecc0000] : 6323495748000
	[0x7ed30000, line 0x7ed30000] : 6323559861000
	[0x76800000, line 0x76800000] : 6323565270000
	[0x100000, line 0x100000] : 6323662289000
	[0x7e850000, line 0x7e850000] : 6323702110500
	[0x7ea60000, line 0x7ea60000] : 6323762182500
	[0x76ef0000, line 0x76ef0000] : 6323809850500
	[0x71b60000, line 0x71b60000] : 6323816139500

AFTER : access address is [0x7e5a0000, line 0x7e5a0000]
	[0x7f050000, line 0x7f050000] : 6323370208000
	[0x7ecb0000, line 0x7ecb0000] : 6323489125500
	[0x7ecc0000, line 0x7ecc0000] : 6323495748000
	[0x7ed30000, line 0x7ed30000] : 6323559861000
	[0x76800000, line 0x76800000] : 6323565270000
	[0x100000, line 0x100000] : 6323662289000
	[0x7e850000, line 0x7e850000] : 6323702110500
	[0x7ea60000, line 0x7ea60000] : 6323762182500
	[0x76ef0000, line 0x76ef0000] : 6323809850500
	[0x71b60000, line 0x71b60000] : 6323816139500
	[0x7e5a0000, line 0x7e5a0000] : 6323863620000

BEFORE : access address is [0x71b60000, line 0x71b60000]
	[0x7f050000, line 0x7f050000] : 6323370208000
	[0x7ecb0000, line 0x7ecb0000] : 6323489125500
	[0x7ecc0000, line 0x7ecc0000] : 6323495748000
	[0x7ed30000, line 0x7ed30000] : 6323559861000
	[0x76800000, line 0x76800000] : 6323565270000
	[0x100000, line 0x100000] : 6323662289000
	[0x7e850000, line 0x7e850000] : 6323702110500
	[0x7ea60000, line 0x7ea60000] : 6323762182500
	[0x76ef0000, line 0x76ef0000] : 6323809850500
	[0x71b60000, line 0x71b60000] : 6323816139500
	[0x7e5a0000, line 0x7e5a0000] : 6323863620000

BEFORE : access address is [0x76ef0000, line 0x76ef0000]
	[0x7f050000, line 0x7f050000] : 6323370208000
	[0x7ecb0000, line 0x7ecb0000] : 6323489125500
	[0x7ecc0000, line 0x7ecc0000] : 6323495748000
	[0x7ed30000, line 0x7ed30000] : 6323559861000
	[0x76800000, line 0x76800000] : 6323565270000
	[0x100000, line 0x100000] : 6323662289000
	[0x7e850000, line 0x7e850000] : 6323702110500
	[0x7ea60000, line 0x7ea60000] : 6323762182500
	[0x76ef0000, line 0x76ef0000] : 6323809850500
	[0x71b60000, line 0x71b60000] : 6323816139500
	[0x7e5a0000, line 0x7e5a0000] : 6323863620000

BEFORE : access address is [0x7e5a0000, line 0x7e5a0000]
	[0x7f050000, line 0x7f050000] : 6323370208000
	[0x7ecb0000, line 0x7ecb0000] : 6323489125500
	[0x7ecc0000, line 0x7ecc0000] : 6323495748000
	[0x7ed30000, line 0x7ed30000] : 6323559861000
	[0x76800000, line 0x76800000] : 6323565270000
	[0x100000, line 0x100000] : 6323662289000
	[0x7e850000, line 0x7e850000] : 6323702110500
	[0x7ea60000, line 0x7ea60000] : 6323762182500
	[0x76ef0000, line 0x76ef0000] : 6323809850500
	[0x71b60000, line 0x71b60000] : 6323816139500
	[0x7e5a0000, line 0x7e5a0000] : 6323863620000

BEFORE : access address is [0x7e6c0000, line 0x7e6c0000]
	[0x7f050000, line 0x7f050000] : 6323370208000
	[0x7ecb0000, line 0x7ecb0000] : 6323489125500
	[0x7ecc0000, line 0x7ecc0000] : 6323495748000
	[0x7ed30000, line 0x7ed30000] : 6323559861000
	[0x76800000, line 0x76800000] : 6323565270000
	[0x100000, line 0x100000] : 6323662289000
	[0x7e850000, line 0x7e850000] : 6323702110500
	[0x7ea60000, line 0x7ea60000] : 6323762182500
	[0x76ef0000, line 0x76ef0000] : 6323809850500
	[0x71b60000, line 0x71b60000] : 6323816139500
	[0x7e5a0000, line 0x7e5a0000] : 6323863620000

AFTER : access address is [0x7e6c0000, line 0x7e6c0000]
	[0x7f050000, line 0x7f050000] : 6323370208000
	[0x7ecb0000, line 0x7ecb0000] : 6323489125500
	[0x7ecc0000, line 0x7ecc0000] : 6323495748000
	[0x7ed30000, line 0x7ed30000] : 6323559861000
	[0x76800000, line 0x76800000] : 6323565270000
	[0x100000, line 0x100000] : 6323662289000
	[0x7e850000, line 0x7e850000] : 6323702110500
	[0x7ea60000, line 0x7ea60000] : 6323762182500
	[0x76ef0000, line 0x76ef0000] : 6323809850500
	[0x71b60000, line 0x71b60000] : 6323816139500
	[0x7e5a0000, line 0x7e5a0000] : 6323863620000
	[0x7e6c0000, line 0x7e6c0000] : 6323946440500

BEFORE : access address is [0x7e6c0000, line 0x7e6c0000]
	[0x7f050000, line 0x7f050000] : 6323370208000
	[0x7ecb0000, line 0x7ecb0000] : 6323489125500
	[0x7ecc0000, line 0x7ecc0000] : 6323495748000
	[0x7ed30000, line 0x7ed30000] : 6323559861000
	[0x76800000, line 0x76800000] : 6323565270000
	[0x100000, line 0x100000] : 6323662289000
	[0x7e850000, line 0x7e850000] : 6323702110500
	[0x7ea60000, line 0x7ea60000] : 6323762182500
	[0x76ef0000, line 0x76ef0000] : 6323809850500
	[0x71b60000, line 0x71b60000] : 6323816139500
	[0x7e5a0000, line 0x7e5a0000] : 6323863620000
	[0x7e6c0000, line 0x7e6c0000] : 6323946440500

BEFORE : access address is [0x71b90000, line 0x71b90000]
	[0x7f050000, line 0x7f050000] : 6323370208000
	[0x7ecb0000, line 0x7ecb0000] : 6323489125500
	[0x7ecc0000, line 0x7ecc0000] : 6323495748000
	[0x7ed30000, line 0x7ed30000] : 6323559861000
	[0x76800000, line 0x76800000] : 6323565270000
	[0x100000, line 0x100000] : 6323662289000
	[0x7e850000, line 0x7e850000] : 6323702110500
	[0x7ea60000, line 0x7ea60000] : 6323762182500
	[0x76ef0000, line 0x76ef0000] : 6323809850500
	[0x71b60000, line 0x71b60000] : 6323816139500
	[0x7e5a0000, line 0x7e5a0000] : 6323863620000
	[0x7e6c0000, line 0x7e6c0000] : 6323946440500

AFTER : access address is [0x71b90000, line 0x71b90000]
	[0x7f050000, line 0x7f050000] : 6323370208000
	[0x7ecb0000, line 0x7ecb0000] : 6323489125500
	[0x7ecc0000, line 0x7ecc0000] : 6323495748000
	[0x7ed30000, line 0x7ed30000] : 6323559861000
	[0x76800000, line 0x76800000] : 6323565270000
	[0x100000, line 0x100000] : 6323662289000
	[0x7e850000, line 0x7e850000] : 6323702110500
	[0x7ea60000, line 0x7ea60000] : 6323762182500
	[0x76ef0000, line 0x76ef0000] : 6323809850500
	[0x71b60000, line 0x71b60000] : 6323816139500
	[0x7e5a0000, line 0x7e5a0000] : 6323863620000
	[0x7e6c0000, line 0x7e6c0000] : 6323946440500
	[0x71b90000, line 0x71b90000] : 6324014923000

BEFORE : access address is [0x71b90000, line 0x71b90000]
	[0x7f050000, line 0x7f050000] : 6323370208000
	[0x7ecb0000, line 0x7ecb0000] : 6323489125500
	[0x7ecc0000, line 0x7ecc0000] : 6323495748000
	[0x7ed30000, line 0x7ed30000] : 6323559861000
	[0x76800000, line 0x76800000] : 6323565270000
	[0x100000, line 0x100000] : 6323662289000
	[0x7e850000, line 0x7e850000] : 6323702110500
	[0x7ea60000, line 0x7ea60000] : 6323762182500
	[0x76ef0000, line 0x76ef0000] : 6323809850500
	[0x71b60000, line 0x71b60000] : 6323816139500
	[0x7e5a0000, line 0x7e5a0000] : 6323863620000
	[0x7e6c0000, line 0x7e6c0000] : 6323946440500
	[0x71b90000, line 0x71b90000] : 6324014923000

BEFORE : access address is [0x7e0f0000, line 0x7e0f0000]
	[0x7f050000, line 0x7f050000] : 6323370208000
	[0x7ecb0000, line 0x7ecb0000] : 6323489125500
	[0x7ecc0000, line 0x7ecc0000] : 6323495748000
	[0x7ed30000, line 0x7ed30000] : 6323559861000
	[0x76800000, line 0x76800000] : 6323565270000
	[0x100000, line 0x100000] : 6323662289000
	[0x7e850000, line 0x7e850000] : 6323702110500
	[0x7ea60000, line 0x7ea60000] : 6323762182500
	[0x76ef0000, line 0x76ef0000] : 6323809850500
	[0x71b60000, line 0x71b60000] : 6323816139500
	[0x7e5a0000, line 0x7e5a0000] : 6323863620000
	[0x7e6c0000, line 0x7e6c0000] : 6323946440500
	[0x71b90000, line 0x71b90000] : 6324014923000

AFTER : access address is [0x7e0f0000, line 0x7e0f0000]
	[0x7f050000, line 0x7f050000] : 6323370208000
	[0x7ecb0000, line 0x7ecb0000] : 6323489125500
	[0x7ecc0000, line 0x7ecc0000] : 6323495748000
	[0x7ed30000, line 0x7ed30000] : 6323559861000
	[0x76800000, line 0x76800000] : 6323565270000
	[0x100000, line 0x100000] : 6323662289000
	[0x7e850000, line 0x7e850000] : 6323702110500
	[0x7ea60000, line 0x7ea60000] : 6323762182500
	[0x76ef0000, line 0x76ef0000] : 6323809850500
	[0x71b60000, line 0x71b60000] : 6323816139500
	[0x7e5a0000, line 0x7e5a0000] : 6323863620000
	[0x7e6c0000, line 0x7e6c0000] : 6323946440500
	[0x71b90000, line 0x71b90000] : 6324014923000
	[0x7e0f0000, line 0x7e0f0000] : 6324088780500

BEFORE : access address is [0x7e0f0000, line 0x7e0f0000]
	[0x7f050000, line 0x7f050000] : 6323370208000
	[0x7ecb0000, line 0x7ecb0000] : 6323489125500
	[0x7ecc0000, line 0x7ecc0000] : 6323495748000
	[0x7ed30000, line 0x7ed30000] : 6323559861000
	[0x76800000, line 0x76800000] : 6323565270000
	[0x100000, line 0x100000] : 6323662289000
	[0x7e850000, line 0x7e850000] : 6323702110500
	[0x7ea60000, line 0x7ea60000] : 6323762182500
	[0x76ef0000, line 0x76ef0000] : 6323809850500
	[0x71b60000, line 0x71b60000] : 6323816139500
	[0x7e5a0000, line 0x7e5a0000] : 6323863620000
	[0x7e6c0000, line 0x7e6c0000] : 6323946440500
	[0x71b90000, line 0x71b90000] : 6324014923000
	[0x7e0f0000, line 0x7e0f0000] : 6324088780500

BEFORE : access address is [0x7e210000, line 0x7e210000]
	[0x7f050000, line 0x7f050000] : 6323370208000
	[0x7ecb0000, line 0x7ecb0000] : 6323489125500
	[0x7ecc0000, line 0x7ecc0000] : 6323495748000
	[0x7ed30000, line 0x7ed30000] : 6323559861000
	[0x76800000, line 0x76800000] : 6323565270000
	[0x100000, line 0x100000] : 6323662289000
	[0x7e850000, line 0x7e850000] : 6323702110500
	[0x7ea60000, line 0x7ea60000] : 6323762182500
	[0x76ef0000, line 0x76ef0000] : 6323809850500
	[0x71b60000, line 0x71b60000] : 6323816139500
	[0x7e5a0000, line 0x7e5a0000] : 6323863620000
	[0x7e6c0000, line 0x7e6c0000] : 6323946440500
	[0x71b90000, line 0x71b90000] : 6324014923000
	[0x7e0f0000, line 0x7e0f0000] : 6324088780500

AFTER : access address is [0x7e210000, line 0x7e210000]
	[0x7f050000, line 0x7f050000] : 6323370208000
	[0x7ecb0000, line 0x7ecb0000] : 6323489125500
	[0x7ecc0000, line 0x7ecc0000] : 6323495748000
	[0x7ed30000, line 0x7ed30000] : 6323559861000
	[0x76800000, line 0x76800000] : 6323565270000
	[0x100000, line 0x100000] : 6323662289000
	[0x7e850000, line 0x7e850000] : 6323702110500
	[0x7ea60000, line 0x7ea60000] : 6323762182500
	[0x76ef0000, line 0x76ef0000] : 6323809850500
	[0x71b60000, line 0x71b60000] : 6323816139500
	[0x7e5a0000, line 0x7e5a0000] : 6323863620000
	[0x7e6c0000, line 0x7e6c0000] : 6323946440500
	[0x71b90000, line 0x71b90000] : 6324014923000
	[0x7e0f0000, line 0x7e0f0000] : 6324088780500
	[0x7e210000, line 0x7e210000] : 6324178145000

BEFORE : access address is [0x7e210000, line 0x7e210000]
	[0x7f050000, line 0x7f050000] : 6323370208000
	[0x7ecb0000, line 0x7ecb0000] : 6323489125500
	[0x7ecc0000, line 0x7ecc0000] : 6323495748000
	[0x7ed30000, line 0x7ed30000] : 6323559861000
	[0x76800000, line 0x76800000] : 6323565270000
	[0x100000, line 0x100000] : 6323662289000
	[0x7e850000, line 0x7e850000] : 6323702110500
	[0x7ea60000, line 0x7ea60000] : 6323762182500
	[0x76ef0000, line 0x76ef0000] : 6323809850500
	[0x71b60000, line 0x71b60000] : 6323816139500
	[0x7e5a0000, line 0x7e5a0000] : 6323863620000
	[0x7e6c0000, line 0x7e6c0000] : 6323946440500
	[0x71b90000, line 0x71b90000] : 6324014923000
	[0x7e0f0000, line 0x7e0f0000] : 6324088780500
	[0x7e210000, line 0x7e210000] : 6324178145000

BEFORE : access address is [0x7e310000, line 0x7e310000]
	[0x7f050000, line 0x7f050000] : 6323370208000
	[0x7ecb0000, line 0x7ecb0000] : 6323489125500
	[0x7ecc0000, line 0x7ecc0000] : 6323495748000
	[0x7ed30000, line 0x7ed30000] : 6323559861000
	[0x76800000, line 0x76800000] : 6323565270000
	[0x100000, line 0x100000] : 6323662289000
	[0x7e850000, line 0x7e850000] : 6323702110500
	[0x7ea60000, line 0x7ea60000] : 6323762182500
	[0x76ef0000, line 0x76ef0000] : 6323809850500
	[0x71b60000, line 0x71b60000] : 6323816139500
	[0x7e5a0000, line 0x7e5a0000] : 6323863620000
	[0x7e6c0000, line 0x7e6c0000] : 6323946440500
	[0x71b90000, line 0x71b90000] : 6324014923000
	[0x7e0f0000, line 0x7e0f0000] : 6324088780500
	[0x7e210000, line 0x7e210000] : 6324178145000

AFTER : access address is [0x7e310000, line 0x7e310000]
	[0x7f050000, line 0x7f050000] : 6323370208000
	[0x7ecb0000, line 0x7ecb0000] : 6323489125500
	[0x7ecc0000, line 0x7ecc0000] : 6323495748000
	[0x7ed30000, line 0x7ed30000] : 6323559861000
	[0x76800000, line 0x76800000] : 6323565270000
	[0x100000, line 0x100000] : 6323662289000
	[0x7e850000, line 0x7e850000] : 6323702110500
	[0x7ea60000, line 0x7ea60000] : 6323762182500
	[0x76ef0000, line 0x76ef0000] : 6323809850500
	[0x71b60000, line 0x71b60000] : 6323816139500
	[0x7e5a0000, line 0x7e5a0000] : 6323863620000
	[0x7e6c0000, line 0x7e6c0000] : 6323946440500
	[0x71b90000, line 0x71b90000] : 6324014923000
	[0x7e0f0000, line 0x7e0f0000] : 6324088780500
	[0x7e210000, line 0x7e210000] : 6324178145000
	[0x7e310000, line 0x7e310000] : 0

BEFORE : access address is [0x7e310000, line 0x7e310000]
	[0x7f050000, line 0x7f050000] : 6323370208000
	[0x7ecb0000, line 0x7ecb0000] : 6323489125500
	[0x7ecc0000, line 0x7ecc0000] : 6323495748000
	[0x7ed30000, line 0x7ed30000] : 6323559861000
	[0x76800000, line 0x76800000] : 6323565270000
	[0x100000, line 0x100000] : 6323662289000
	[0x7e850000, line 0x7e850000] : 6323702110500
	[0x7ea60000, line 0x7ea60000] : 6323762182500
	[0x76ef0000, line 0x76ef0000] : 6323809850500
	[0x71b60000, line 0x71b60000] : 6323816139500
	[0x7e5a0000, line 0x7e5a0000] : 6323863620000
	[0x7e6c0000, line 0x7e6c0000] : 6323946440500
	[0x71b90000, line 0x71b90000] : 6324014923000
	[0x7e0f0000, line 0x7e0f0000] : 6324088780500
	[0x7e210000, line 0x7e210000] : 6324178145000
	[0x7e310000, line 0x7e310000] : 0

BEFORE : access address is [0x7dc20000, line 0x7dc20000]
	[0x7f050000, line 0x7f050000] : 6323370208000
	[0x7ecb0000, line 0x7ecb0000] : 6323489125500
	[0x7ecc0000, line 0x7ecc0000] : 6323495748000
	[0x7ed30000, line 0x7ed30000] : 6323559861000
	[0x76800000, line 0x76800000] : 6323565270000
	[0x100000, line 0x100000] : 6323662289000
	[0x7e850000, line 0x7e850000] : 6323702110500
	[0x7ea60000, line 0x7ea60000] : 6323762182500
	[0x76ef0000, line 0x76ef0000] : 6323809850500
	[0x71b60000, line 0x71b60000] : 6323816139500
	[0x7e5a0000, line 0x7e5a0000] : 6323863620000
	[0x7e6c0000, line 0x7e6c0000] : 6323946440500
	[0x71b90000, line 0x71b90000] : 6324014923000
	[0x7e0f0000, line 0x7e0f0000] : 6324088780500
	[0x7e210000, line 0x7e210000] : 6324178145000
	[0x7e310000, line 0x7e310000] : 0

BEFORE : access address is [0x7dc20000, line 0x7dc20000]
	[0x7f050000, line 0x7f050000] : 6323370208000
	[0x7ecb0000, line 0x7ecb0000] : 6323489125500
	[0x7ecc0000, line 0x7ecc0000] : 6323495748000
	[0x7ed30000, line 0x7ed30000] : 6323559861000
	[0x76800000, line 0x76800000] : 6323565270000
	[0x100000, line 0x100000] : 6323662289000
	[0x7e850000, line 0x7e850000] : 6323702110500
	[0x7ea60000, line 0x7ea60000] : 6323762182500
	[0x76ef0000, line 0x76ef0000] : 6323809850500
	[0x71b60000, line 0x71b60000] : 6323816139500
	[0x7e5a0000, line 0x7e5a0000] : 6323863620000
	[0x7e6c0000, line 0x7e6c0000] : 6323946440500
	[0x71b90000, line 0x71b90000] : 6324014923000
	[0x7e0f0000, line 0x7e0f0000] : 6324088780500
	[0x7e210000, line 0x7e210000] : 6324178145000

AFTER : access address is [0x7dc20000, line 0x7dc20000]
	[0x7f050000, line 0x7f050000] : 6323370208000
	[0x7ecb0000, line 0x7ecb0000] : 6323489125500
	[0x7ecc0000, line 0x7ecc0000] : 6323495748000
	[0x7ed30000, line 0x7ed30000] : 6323559861000
	[0x76800000, line 0x76800000] : 6323565270000
	[0x100000, line 0x100000] : 6323662289000
	[0x7e850000, line 0x7e850000] : 6323702110500
	[0x7ea60000, line 0x7ea60000] : 6323762182500
	[0x76ef0000, line 0x76ef0000] : 6323809850500
	[0x71b60000, line 0x71b60000] : 6323816139500
	[0x7e5a0000, line 0x7e5a0000] : 6323863620000
	[0x7e6c0000, line 0x7e6c0000] : 6323946440500
	[0x71b90000, line 0x71b90000] : 6324014923000
	[0x7e0f0000, line 0x7e0f0000] : 6324088780500
	[0x7e210000, line 0x7e210000] : 6324178145000
	[0x7dc20000, line 0x7dc20000] : 0

BEFORE : access address is [0x7dc20000, line 0x7dc20000]
	[0x7f050000, line 0x7f050000] : 6323370208000
	[0x7ecb0000, line 0x7ecb0000] : 6323489125500
	[0x7ecc0000, line 0x7ecc0000] : 6323495748000
	[0x7ed30000, line 0x7ed30000] : 6323559861000
	[0x76800000, line 0x76800000] : 6323565270000
	[0x100000, line 0x100000] : 6323662289000
	[0x7e850000, line 0x7e850000] : 6323702110500
	[0x7ea60000, line 0x7ea60000] : 6323762182500
	[0x76ef0000, line 0x76ef0000] : 6323809850500
	[0x71b60000, line 0x71b60000] : 6323816139500
	[0x7e5a0000, line 0x7e5a0000] : 6323863620000
	[0x7e6c0000, line 0x7e6c0000] : 6323946440500
	[0x71b90000, line 0x71b90000] : 6324014923000
	[0x7e0f0000, line 0x7e0f0000] : 6324088780500
	[0x7e210000, line 0x7e210000] : 6324178145000
	[0x7dc20000, line 0x7dc20000] : 0

BEFORE : access address is [0x7dd70000, line 0x7dd70000]
	[0x7f050000, line 0x7f050000] : 6323370208000
	[0x7ecb0000, line 0x7ecb0000] : 6323489125500
	[0x7ecc0000, line 0x7ecc0000] : 6323495748000
	[0x7ed30000, line 0x7ed30000] : 6323559861000
	[0x76800000, line 0x76800000] : 6323565270000
	[0x100000, line 0x100000] : 6323662289000
	[0x7e850000, line 0x7e850000] : 6323702110500
	[0x7ea60000, line 0x7ea60000] : 6323762182500
	[0x76ef0000, line 0x76ef0000] : 6323809850500
	[0x71b60000, line 0x71b60000] : 6323816139500
	[0x7e5a0000, line 0x7e5a0000] : 6323863620000
	[0x7e6c0000, line 0x7e6c0000] : 6323946440500
	[0x71b90000, line 0x71b90000] : 6324014923000
	[0x7e0f0000, line 0x7e0f0000] : 6324088780500
	[0x7e210000, line 0x7e210000] : 6324178145000
	[0x7dc20000, line 0x7dc20000] : 0

BEFORE : access address is [0x7dd70000, line 0x7dd70000]
	[0x7f050000, line 0x7f050000] : 6323370208000
	[0x7ecb0000, line 0x7ecb0000] : 6323489125500
	[0x7ecc0000, line 0x7ecc0000] : 6323495748000
	[0x7ed30000, line 0x7ed30000] : 6323559861000
	[0x76800000, line 0x76800000] : 6323565270000
	[0x100000, line 0x100000] : 6323662289000
	[0x7e850000, line 0x7e850000] : 6323702110500
	[0x7ea60000, line 0x7ea60000] : 6323762182500
	[0x76ef0000, line 0x76ef0000] : 6323809850500
	[0x71b60000, line 0x71b60000] : 6323816139500
	[0x7e5a0000, line 0x7e5a0000] : 6323863620000
	[0x7e6c0000, line 0x7e6c0000] : 6323946440500
	[0x71b90000, line 0x71b90000] : 6324014923000
	[0x7e0f0000, line 0x7e0f0000] : 6324088780500
	[0x7e210000, line 0x7e210000] : 6324178145000

AFTER : access address is [0x7dd70000, line 0x7dd70000]
	[0x7f050000, line 0x7f050000] : 6323370208000
	[0x7ecb0000, line 0x7ecb0000] : 6323489125500
	[0x7ecc0000, line 0x7ecc0000] : 6323495748000
	[0x7ed30000, line 0x7ed30000] : 6323559861000
	[0x76800000, line 0x76800000] : 6323565270000
	[0x100000, line 0x100000] : 6323662289000
	[0x7e850000, line 0x7e850000] : 6323702110500
	[0x7ea60000, line 0x7ea60000] : 6323762182500
	[0x76ef0000, line 0x76ef0000] : 6323809850500
	[0x71b60000, line 0x71b60000] : 6323816139500
	[0x7e5a0000, line 0x7e5a0000] : 6323863620000
	[0x7e6c0000, line 0x7e6c0000] : 6323946440500
	[0x71b90000, line 0x71b90000] : 6324014923000
	[0x7e0f0000, line 0x7e0f0000] : 6324088780500
	[0x7e210000, line 0x7e210000] : 6324178145000
	[0x7dd70000, line 0x7dd70000] : 0

BEFORE : access address is [0x7dd70000, line 0x7dd70000]
	[0x7f050000, line 0x7f050000] : 6323370208000
	[0x7ecb0000, line 0x7ecb0000] : 6323489125500
	[0x7ecc0000, line 0x7ecc0000] : 6323495748000
	[0x7ed30000, line 0x7ed30000] : 6323559861000
	[0x76800000, line 0x76800000] : 6323565270000
	[0x100000, line 0x100000] : 6323662289000
	[0x7e850000, line 0x7e850000] : 6323702110500
	[0x7ea60000, line 0x7ea60000] : 6323762182500
	[0x76ef0000, line 0x76ef0000] : 6323809850500
	[0x71b60000, line 0x71b60000] : 6323816139500
	[0x7e5a0000, line 0x7e5a0000] : 6323863620000
	[0x7e6c0000, line 0x7e6c0000] : 6323946440500
	[0x71b90000, line 0x71b90000] : 6324014923000
	[0x7e0f0000, line 0x7e0f0000] : 6324088780500
	[0x7e210000, line 0x7e210000] : 6324178145000
	[0x7dd70000, line 0x7dd70000] : 0

BEFORE : access address is [0x76810000, line 0x76810000]
	[0x7f050000, line 0x7f050000] : 6323370208000
	[0x7ecb0000, line 0x7ecb0000] : 6323489125500
	[0x7ecc0000, line 0x7ecc0000] : 6323495748000
	[0x7ed30000, line 0x7ed30000] : 6323559861000
	[0x76800000, line 0x76800000] : 6323565270000
	[0x100000, line 0x100000] : 6323662289000
	[0x7e850000, line 0x7e850000] : 6323702110500
	[0x7ea60000, line 0x7ea60000] : 6323762182500
	[0x76ef0000, line 0x76ef0000] : 6323809850500
	[0x71b60000, line 0x71b60000] : 6323816139500
	[0x7e5a0000, line 0x7e5a0000] : 6323863620000
	[0x7e6c0000, line 0x7e6c0000] : 6323946440500
	[0x71b90000, line 0x71b90000] : 6324014923000
	[0x7e0f0000, line 0x7e0f0000] : 6324088780500
	[0x7e210000, line 0x7e210000] : 6324178145000
	[0x7dd70000, line 0x7dd70000] : 0

BEFORE : access address is [0x76810000, line 0x76810000]
	[0x7f050000, line 0x7f050000] : 6323370208000
	[0x7ecb0000, line 0x7ecb0000] : 6323489125500
	[0x7ecc0000, line 0x7ecc0000] : 6323495748000
	[0x7ed30000, line 0x7ed30000] : 6323559861000
	[0x76800000, line 0x76800000] : 6323565270000
	[0x100000, line 0x100000] : 6323662289000
	[0x7e850000, line 0x7e850000] : 6323702110500
	[0x7ea60000, line 0x7ea60000] : 6323762182500
	[0x76ef0000, line 0x76ef0000] : 6323809850500
	[0x71b60000, line 0x71b60000] : 6323816139500
	[0x7e5a0000, line 0x7e5a0000] : 6323863620000
	[0x7e6c0000, line 0x7e6c0000] : 6323946440500
	[0x71b90000, line 0x71b90000] : 6324014923000
	[0x7e0f0000, line 0x7e0f0000] : 6324088780500
	[0x7e210000, line 0x7e210000] : 6324178145000

AFTER : access address is [0x76810000, line 0x76810000]
	[0x7f050000, line 0x7f050000] : 6323370208000
	[0x7ecb0000, line 0x7ecb0000] : 6323489125500
	[0x7ecc0000, line 0x7ecc0000] : 6323495748000
	[0x7ed30000, line 0x7ed30000] : 6323559861000
	[0x76800000, line 0x76800000] : 6323565270000
	[0x100000, line 0x100000] : 6323662289000
	[0x7e850000, line 0x7e850000] : 6323702110500
	[0x7ea60000, line 0x7ea60000] : 6323762182500
	[0x76ef0000, line 0x76ef0000] : 6323809850500
	[0x71b60000, line 0x71b60000] : 6323816139500
	[0x7e5a0000, line 0x7e5a0000] : 6323863620000
	[0x7e6c0000, line 0x7e6c0000] : 6323946440500
	[0x71b90000, line 0x71b90000] : 6324014923000
	[0x7e0f0000, line 0x7e0f0000] : 6324088780500
	[0x7e210000, line 0x7e210000] : 6324178145000
	[0x76810000, line 0x76810000] : 0

BEFORE : access address is [0x76810000, line 0x76810000]
	[0x7f050000, line 0x7f050000] : 6323370208000
	[0x7ecb0000, line 0x7ecb0000] : 6323489125500
	[0x7ecc0000, line 0x7ecc0000] : 6323495748000
	[0x7ed30000, line 0x7ed30000] : 6323559861000
	[0x76800000, line 0x76800000] : 6323565270000
	[0x100000, line 0x100000] : 6323662289000
	[0x7e850000, line 0x7e850000] : 6323702110500
	[0x7ea60000, line 0x7ea60000] : 6323762182500
	[0x76ef0000, line 0x76ef0000] : 6323809850500
	[0x71b60000, line 0x71b60000] : 6323816139500
	[0x7e5a0000, line 0x7e5a0000] : 6323863620000
	[0x7e6c0000, line 0x7e6c0000] : 6323946440500
	[0x71b90000, line 0x71b90000] : 6324014923000
	[0x7e0f0000, line 0x7e0f0000] : 6324088780500
	[0x7e210000, line 0x7e210000] : 6324178145000
	[0x76810000, line 0x76810000] : 0

BEFORE : access address is [0x7de80000, line 0x7de80000]
	[0x7f050000, line 0x7f050000] : 6323370208000
	[0x7ecb0000, line 0x7ecb0000] : 6323489125500
	[0x7ecc0000, line 0x7ecc0000] : 6323495748000
	[0x7ed30000, line 0x7ed30000] : 6323559861000
	[0x76800000, line 0x76800000] : 6323565270000
	[0x100000, line 0x100000] : 6323662289000
	[0x7e850000, line 0x7e850000] : 6323702110500
	[0x7ea60000, line 0x7ea60000] : 6323762182500
	[0x76ef0000, line 0x76ef0000] : 6323809850500
	[0x71b60000, line 0x71b60000] : 6323816139500
	[0x7e5a0000, line 0x7e5a0000] : 6323863620000
	[0x7e6c0000, line 0x7e6c0000] : 6323946440500
	[0x71b90000, line 0x71b90000] : 6324014923000
	[0x7e0f0000, line 0x7e0f0000] : 6324088780500
	[0x7e210000, line 0x7e210000] : 6324178145000
	[0x76810000, line 0x76810000] : 0

BEFORE : access address is [0x7de80000, line 0x7de80000]
	[0x7f050000, line 0x7f050000] : 6323370208000
	[0x7ecb0000, line 0x7ecb0000] : 6323489125500
	[0x7ecc0000, line 0x7ecc0000] : 6323495748000
	[0x7ed30000, line 0x7ed30000] : 6323559861000
	[0x76800000, line 0x76800000] : 6323565270000
	[0x100000, line 0x100000] : 6323662289000
	[0x7e850000, line 0x7e850000] : 6323702110500
	[0x7ea60000, line 0x7ea60000] : 6323762182500
	[0x76ef0000, line 0x76ef0000] : 6323809850500
	[0x71b60000, line 0x71b60000] : 6323816139500
	[0x7e5a0000, line 0x7e5a0000] : 6323863620000
	[0x7e6c0000, line 0x7e6c0000] : 6323946440500
	[0x71b90000, line 0x71b90000] : 6324014923000
	[0x7e0f0000, line 0x7e0f0000] : 6324088780500
	[0x7e210000, line 0x7e210000] : 6324178145000

AFTER : access address is [0x7de80000, line 0x7de80000]
	[0x7f050000, line 0x7f050000] : 6323370208000
	[0x7ecb0000, line 0x7ecb0000] : 6323489125500
	[0x7ecc0000, line 0x7ecc0000] : 6323495748000
	[0x7ed30000, line 0x7ed30000] : 6323559861000
	[0x76800000, line 0x76800000] : 6323565270000
	[0x100000, line 0x100000] : 6323662289000
	[0x7e850000, line 0x7e850000] : 6323702110500
	[0x7ea60000, line 0x7ea60000] : 6323762182500
	[0x76ef0000, line 0x76ef0000] : 6323809850500
	[0x71b60000, line 0x71b60000] : 6323816139500
	[0x7e5a0000, line 0x7e5a0000] : 6323863620000
	[0x7e6c0000, line 0x7e6c0000] : 6323946440500
	[0x71b90000, line 0x71b90000] : 6324014923000
	[0x7e0f0000, line 0x7e0f0000] : 6324088780500
	[0x7e210000, line 0x7e210000] : 6324178145000
	[0x7de80000, line 0x7de80000] : 0

BEFORE : access address is [0x7de80000, line 0x7de80000]
	[0x7f050000, line 0x7f050000] : 6323370208000
	[0x7ecb0000, line 0x7ecb0000] : 6323489125500
	[0x7ecc0000, line 0x7ecc0000] : 6323495748000
	[0x7ed30000, line 0x7ed30000] : 6323559861000
	[0x76800000, line 0x76800000] : 6323565270000
	[0x100000, line 0x100000] : 6323662289000
	[0x7e850000, line 0x7e850000] : 6323702110500
	[0x7ea60000, line 0x7ea60000] : 6323762182500
	[0x76ef0000, line 0x76ef0000] : 6323809850500
	[0x71b60000, line 0x71b60000] : 6323816139500
	[0x7e5a0000, line 0x7e5a0000] : 6323863620000
	[0x7e6c0000, line 0x7e6c0000] : 6323946440500
	[0x71b90000, line 0x71b90000] : 6324014923000
	[0x7e0f0000, line 0x7e0f0000] : 6324088780500
	[0x7e210000, line 0x7e210000] : 6324178145000
	[0x7de80000, line 0x7de80000] : 0

BEFORE : access address is [0x100000, line 0x100000]
	[0x7f050000, line 0x7f050000] : 6323370208000
	[0x7ecb0000, line 0x7ecb0000] : 6323489125500
	[0x7ecc0000, line 0x7ecc0000] : 6323495748000
	[0x7ed30000, line 0x7ed30000] : 6323559861000
	[0x76800000, line 0x76800000] : 6323565270000
	[0x100000, line 0x100000] : 6323662289000
	[0x7e850000, line 0x7e850000] : 6323702110500
	[0x7ea60000, line 0x7ea60000] : 6323762182500
	[0x76ef0000, line 0x76ef0000] : 6323809850500
	[0x71b60000, line 0x71b60000] : 6323816139500
	[0x7e5a0000, line 0x7e5a0000] : 6323863620000
	[0x7e6c0000, line 0x7e6c0000] : 6323946440500
	[0x71b90000, line 0x71b90000] : 6324014923000
	[0x7e0f0000, line 0x7e0f0000] : 6324088780500
	[0x7e210000, line 0x7e210000] : 6324178145000
	[0x7de80000, line 0x7de80000] : 0

AFTER : access address is [0x100000, line 0x100000]
	[0x7f050000, line 0x7f050000] : 6323370208000
	[0x7ecb0000, line 0x7ecb0000] : 6323489125500
	[0x7ecc0000, line 0x7ecc0000] : 6323495748000
	[0x7ed30000, line 0x7ed30000] : 6323559861000
	[0x76800000, line 0x76800000] : 6323565270000
	[0x100000, line 0x100000] : 6324586674500
	[0x7e850000, line 0x7e850000] : 6323702110500
	[0x7ea60000, line 0x7ea60000] : 6323762182500
	[0x76ef0000, line 0x76ef0000] : 6323809850500
	[0x71b60000, line 0x71b60000] : 6323816139500
	[0x7e5a0000, line 0x7e5a0000] : 6323863620000
	[0x7e6c0000, line 0x7e6c0000] : 6323946440500
	[0x71b90000, line 0x71b90000] : 6324014923000
	[0x7e0f0000, line 0x7e0f0000] : 6324088780500
	[0x7e210000, line 0x7e210000] : 6324178145000
	[0x7de80000, line 0x7de80000] : 0

BEFORE : access address is [0x100000, line 0x100000]
	[0x7f050000, line 0x7f050000] : 6323370208000
	[0x7ecb0000, line 0x7ecb0000] : 6323489125500
	[0x7ecc0000, line 0x7ecc0000] : 6323495748000
	[0x7ed30000, line 0x7ed30000] : 6323559861000
	[0x76800000, line 0x76800000] : 6323565270000
	[0x100000, line 0x100000] : 6324586674500
	[0x7e850000, line 0x7e850000] : 6323702110500
	[0x7ea60000, line 0x7ea60000] : 6323762182500
	[0x76ef0000, line 0x76ef0000] : 6323809850500
	[0x71b60000, line 0x71b60000] : 6323816139500
	[0x7e5a0000, line 0x7e5a0000] : 6323863620000
	[0x7e6c0000, line 0x7e6c0000] : 6323946440500
	[0x71b90000, line 0x71b90000] : 6324014923000
	[0x7e0f0000, line 0x7e0f0000] : 6324088780500
	[0x7e210000, line 0x7e210000] : 6324178145000
	[0x7de80000, line 0x7de80000] : 0

AFTER : access address is [0x100000, line 0x100000]
	[0x7f050000, line 0x7f050000] : 6323370208000
	[0x7ecb0000, line 0x7ecb0000] : 6323489125500
	[0x7ecc0000, line 0x7ecc0000] : 6323495748000
	[0x7ed30000, line 0x7ed30000] : 6323559861000
	[0x76800000, line 0x76800000] : 6323565270000
	[0x100000, line 0x100000] : 6324588568500
	[0x7e850000, line 0x7e850000] : 6323702110500
	[0x7ea60000, line 0x7ea60000] : 6323762182500
	[0x76ef0000, line 0x76ef0000] : 6323809850500
	[0x71b60000, line 0x71b60000] : 6323816139500
	[0x7e5a0000, line 0x7e5a0000] : 6323863620000
	[0x7e6c0000, line 0x7e6c0000] : 6323946440500
	[0x71b90000, line 0x71b90000] : 6324014923000
	[0x7e0f0000, line 0x7e0f0000] : 6324088780500
	[0x7e210000, line 0x7e210000] : 6324178145000
	[0x7de80000, line 0x7de80000] : 0

BEFORE : access address is [0x2fc0000, line 0x2fc0000]
	[0x7f050000, line 0x7f050000] : 6323370208000
	[0x7ecb0000, line 0x7ecb0000] : 6323489125500
	[0x7ecc0000, line 0x7ecc0000] : 6323495748000
	[0x7ed30000, line 0x7ed30000] : 6323559861000
	[0x76800000, line 0x76800000] : 6323565270000
	[0x100000, line 0x100000] : 6324588568500
	[0x7e850000, line 0x7e850000] : 6323702110500
	[0x7ea60000, line 0x7ea60000] : 6323762182500
	[0x76ef0000, line 0x76ef0000] : 6323809850500
	[0x71b60000, line 0x71b60000] : 6323816139500
	[0x7e5a0000, line 0x7e5a0000] : 6323863620000
	[0x7e6c0000, line 0x7e6c0000] : 6323946440500
	[0x71b90000, line 0x71b90000] : 6324014923000
	[0x7e0f0000, line 0x7e0f0000] : 6324088780500
	[0x7e210000, line 0x7e210000] : 6324178145000
	[0x7de80000, line 0x7de80000] : 0

BEFORE : access address is [0x2fc0000, line 0x2fc0000]
	[0x7f050000, line 0x7f050000] : 6323370208000
	[0x7ecb0000, line 0x7ecb0000] : 6323489125500
	[0x7ecc0000, line 0x7ecc0000] : 6323495748000
	[0x7ed30000, line 0x7ed30000] : 6323559861000
	[0x76800000, line 0x76800000] : 6323565270000
	[0x100000, line 0x100000] : 6324588568500
	[0x7e850000, line 0x7e850000] : 6323702110500
	[0x7ea60000, line 0x7ea60000] : 6323762182500
	[0x76ef0000, line 0x76ef0000] : 6323809850500
	[0x71b60000, line 0x71b60000] : 6323816139500
	[0x7e5a0000, line 0x7e5a0000] : 6323863620000
	[0x7e6c0000, line 0x7e6c0000] : 6323946440500
	[0x71b90000, line 0x71b90000] : 6324014923000
	[0x7e0f0000, line 0x7e0f0000] : 6324088780500
	[0x7e210000, line 0x7e210000] : 6324178145000

AFTER : access address is [0x2fc0000, line 0x2fc0000]
	[0x7f050000, line 0x7f050000] : 6323370208000
	[0x7ecb0000, line 0x7ecb0000] : 6323489125500
	[0x7ecc0000, line 0x7ecc0000] : 6323495748000
	[0x7ed30000, line 0x7ed30000] : 6323559861000
	[0x76800000, line 0x76800000] : 6323565270000
	[0x100000, line 0x100000] : 6324588568500
	[0x7e850000, line 0x7e850000] : 6323702110500
	[0x7ea60000, line 0x7ea60000] : 6323762182500
	[0x76ef0000, line 0x76ef0000] : 6323809850500
	[0x71b60000, line 0x71b60000] : 6323816139500
	[0x7e5a0000, line 0x7e5a0000] : 6323863620000
	[0x7e6c0000, line 0x7e6c0000] : 6323946440500
	[0x71b90000, line 0x71b90000] : 6324014923000
	[0x7e0f0000, line 0x7e0f0000] : 6324088780500
	[0x7e210000, line 0x7e210000] : 6324178145000
	[0x2fc0000, line 0x2fc0000] : 0

BEFORE : access address is [0x2fc0000, line 0x2fc0000]
	[0x7f050000, line 0x7f050000] : 6323370208000
	[0x7ecb0000, line 0x7ecb0000] : 6323489125500
	[0x7ecc0000, line 0x7ecc0000] : 6323495748000
	[0x7ed30000, line 0x7ed30000] : 6323559861000
	[0x76800000, line 0x76800000] : 6323565270000
	[0x100000, line 0x100000] : 6324588568500
	[0x7e850000, line 0x7e850000] : 6323702110500
	[0x7ea60000, line 0x7ea60000] : 6323762182500
	[0x76ef0000, line 0x76ef0000] : 6323809850500
	[0x71b60000, line 0x71b60000] : 6323816139500
	[0x7e5a0000, line 0x7e5a0000] : 6323863620000
	[0x7e6c0000, line 0x7e6c0000] : 6323946440500
	[0x71b90000, line 0x71b90000] : 6324014923000
	[0x7e0f0000, line 0x7e0f0000] : 6324088780500
	[0x7e210000, line 0x7e210000] : 6324178145000
	[0x2fc0000, line 0x2fc0000] : 0

BEFORE : access address is [0x2fc0000, line 0x2fc0000]
	[0x7f050000, line 0x7f050000] : 6323370208000
	[0x7ecb0000, line 0x7ecb0000] : 6323489125500
	[0x7ecc0000, line 0x7ecc0000] : 6323495748000
	[0x7ed30000, line 0x7ed30000] : 6323559861000
	[0x76800000, line 0x76800000] : 6323565270000
	[0x100000, line 0x100000] : 6324588568500
	[0x7e850000, line 0x7e850000] : 6323702110500
	[0x7ea60000, line 0x7ea60000] : 6323762182500
	[0x76ef0000, line 0x76ef0000] : 6323809850500
	[0x71b60000, line 0x71b60000] : 6323816139500
	[0x7e5a0000, line 0x7e5a0000] : 6323863620000
	[0x7e6c0000, line 0x7e6c0000] : 6323946440500
	[0x71b90000, line 0x71b90000] : 6324014923000
	[0x7e0f0000, line 0x7e0f0000] : 6324088780500
	[0x7e210000, line 0x7e210000] : 6324178145000
	[0x2fc0000, line 0x2fc0000] : 0

AFTER : access address is [0x2fc0000, line 0x2fc0000]
	[0x7f050000, line 0x7f050000] : 6323370208000
	[0x7ecb0000, line 0x7ecb0000] : 6323489125500
	[0x7ecc0000, line 0x7ecc0000] : 6323495748000
	[0x7ed30000, line 0x7ed30000] : 6323559861000
	[0x76800000, line 0x76800000] : 6323565270000
	[0x100000, line 0x100000] : 6324588568500
	[0x7e850000, line 0x7e850000] : 6323702110500
	[0x7ea60000, line 0x7ea60000] : 6323762182500
	[0x76ef0000, line 0x76ef0000] : 6323809850500
	[0x71b60000, line 0x71b60000] : 6323816139500
	[0x7e5a0000, line 0x7e5a0000] : 6323863620000
	[0x7e6c0000, line 0x7e6c0000] : 6323946440500
	[0x71b90000, line 0x71b90000] : 6324014923000
	[0x7e0f0000, line 0x7e0f0000] : 6324088780500
	[0x7e210000, line 0x7e210000] : 6324178145000
	[0x2fc0000, line 0x2fc0000] : 6324597450000

BEFORE : access address is [0x76f00000, line 0x76f00000]
	[0x7f050000, line 0x7f050000] : 6323370208000
	[0x7ecb0000, line 0x7ecb0000] : 6323489125500
	[0x7ecc0000, line 0x7ecc0000] : 6323495748000
	[0x7ed30000, line 0x7ed30000] : 6323559861000
	[0x76800000, line 0x76800000] : 6323565270000
	[0x100000, line 0x100000] : 6324588568500
	[0x7e850000, line 0x7e850000] : 6323702110500
	[0x7ea60000, line 0x7ea60000] : 6323762182500
	[0x76ef0000, line 0x76ef0000] : 6323809850500
	[0x71b60000, line 0x71b60000] : 6323816139500
	[0x7e5a0000, line 0x7e5a0000] : 6323863620000
	[0x7e6c0000, line 0x7e6c0000] : 6323946440500
	[0x71b90000, line 0x71b90000] : 6324014923000
	[0x7e0f0000, line 0x7e0f0000] : 6324088780500
	[0x7e210000, line 0x7e210000] : 6324178145000
	[0x2fc0000, line 0x2fc0000] : 6324597450000

BEFORE : access address is [0x76f00000, line 0x76f00000]
	[0x7ecb0000, line 0x7ecb0000] : 6323489125500
	[0x7ecc0000, line 0x7ecc0000] : 6323495748000
	[0x7ed30000, line 0x7ed30000] : 6323559861000
	[0x76800000, line 0x76800000] : 6323565270000
	[0x100000, line 0x100000] : 6324588568500
	[0x7e850000, line 0x7e850000] : 6323702110500
	[0x7ea60000, line 0x7ea60000] : 6323762182500
	[0x76ef0000, line 0x76ef0000] : 6323809850500
	[0x71b60000, line 0x71b60000] : 6323816139500
	[0x7e5a0000, line 0x7e5a0000] : 6323863620000
	[0x7e6c0000, line 0x7e6c0000] : 6323946440500
	[0x71b90000, line 0x71b90000] : 6324014923000
	[0x7e0f0000, line 0x7e0f0000] : 6324088780500
	[0x7e210000, line 0x7e210000] : 6324178145000
	[0x2fc0000, line 0x2fc0000] : 6324597450000

AFTER : access address is [0x76f00000, line 0x76f00000]
	[0x76f00000, line 0x76f00000] : 0
	[0x7ecb0000, line 0x7ecb0000] : 6323489125500
	[0x7ecc0000, line 0x7ecc0000] : 6323495748000
	[0x7ed30000, line 0x7ed30000] : 6323559861000
	[0x76800000, line 0x76800000] : 6323565270000
	[0x100000, line 0x100000] : 6324588568500
	[0x7e850000, line 0x7e850000] : 6323702110500
	[0x7ea60000, line 0x7ea60000] : 6323762182500
	[0x76ef0000, line 0x76ef0000] : 6323809850500
	[0x71b60000, line 0x71b60000] : 6323816139500
	[0x7e5a0000, line 0x7e5a0000] : 6323863620000
	[0x7e6c0000, line 0x7e6c0000] : 6323946440500
	[0x71b90000, line 0x71b90000] : 6324014923000
	[0x7e0f0000, line 0x7e0f0000] : 6324088780500
	[0x7e210000, line 0x7e210000] : 6324178145000
	[0x2fc0000, line 0x2fc0000] : 6324597450000

BEFORE : access address is [0x76f00000, line 0x76f00000]
	[0x76f00000, line 0x76f00000] : 0
	[0x7ecb0000, line 0x7ecb0000] : 6323489125500
	[0x7ecc0000, line 0x7ecc0000] : 6323495748000
	[0x7ed30000, line 0x7ed30000] : 6323559861000
	[0x76800000, line 0x76800000] : 6323565270000
	[0x100000, line 0x100000] : 6324588568500
	[0x7e850000, line 0x7e850000] : 6323702110500
	[0x7ea60000, line 0x7ea60000] : 6323762182500
	[0x76ef0000, line 0x76ef0000] : 6323809850500
	[0x71b60000, line 0x71b60000] : 6323816139500
	[0x7e5a0000, line 0x7e5a0000] : 6323863620000
	[0x7e6c0000, line 0x7e6c0000] : 6323946440500
	[0x71b90000, line 0x71b90000] : 6324014923000
	[0x7e0f0000, line 0x7e0f0000] : 6324088780500
	[0x7e210000, line 0x7e210000] : 6324178145000
	[0x2fc0000, line 0x2fc0000] : 6324597450000

BEFORE : access address is [0x76f00000, line 0x76f00000]
	[0x76f00000, line 0x76f00000] : 0
	[0x7ecb0000, line 0x7ecb0000] : 6323489125500
	[0x7ecc0000, line 0x7ecc0000] : 6323495748000
	[0x7ed30000, line 0x7ed30000] : 6323559861000
	[0x76800000, line 0x76800000] : 6323565270000
	[0x100000, line 0x100000] : 6324588568500
	[0x7e850000, line 0x7e850000] : 6323702110500
	[0x7ea60000, line 0x7ea60000] : 6323762182500
	[0x76ef0000, line 0x76ef0000] : 6323809850500
	[0x71b60000, line 0x71b60000] : 6323816139500
	[0x7e5a0000, line 0x7e5a0000] : 6323863620000
	[0x7e6c0000, line 0x7e6c0000] : 6323946440500
	[0x71b90000, line 0x71b90000] : 6324014923000
	[0x7e0f0000, line 0x7e0f0000] : 6324088780500
	[0x7e210000, line 0x7e210000] : 6324178145000
	[0x2fc0000, line 0x2fc0000] : 6324597450000

AFTER : access address is [0x76f00000, line 0x76f00000]
	[0x76f00000, line 0x76f00000] : 6324685987500
	[0x7ecb0000, line 0x7ecb0000] : 6323489125500
	[0x7ecc0000, line 0x7ecc0000] : 6323495748000
	[0x7ed30000, line 0x7ed30000] : 6323559861000
	[0x76800000, line 0x76800000] : 6323565270000
	[0x100000, line 0x100000] : 6324588568500
	[0x7e850000, line 0x7e850000] : 6323702110500
	[0x7ea60000, line 0x7ea60000] : 6323762182500
	[0x76ef0000, line 0x76ef0000] : 6323809850500
	[0x71b60000, line 0x71b60000] : 6323816139500
	[0x7e5a0000, line 0x7e5a0000] : 6323863620000
	[0x7e6c0000, line 0x7e6c0000] : 6323946440500
	[0x71b90000, line 0x71b90000] : 6324014923000
	[0x7e0f0000, line 0x7e0f0000] : 6324088780500
	[0x7e210000, line 0x7e210000] : 6324178145000
	[0x2fc0000, line 0x2fc0000] : 6324597450000

BEFORE : access address is [0x73070000, line 0x73070000]
	[0x76f00000, line 0x76f00000] : 6324685987500
	[0x7ecb0000, line 0x7ecb0000] : 6323489125500
	[0x7ecc0000, line 0x7ecc0000] : 6323495748000
	[0x7ed30000, line 0x7ed30000] : 6323559861000
	[0x76800000, line 0x76800000] : 6323565270000
	[0x100000, line 0x100000] : 6324588568500
	[0x7e850000, line 0x7e850000] : 6323702110500
	[0x7ea60000, line 0x7ea60000] : 6323762182500
	[0x76ef0000, line 0x76ef0000] : 6323809850500
	[0x71b60000, line 0x71b60000] : 6323816139500
	[0x7e5a0000, line 0x7e5a0000] : 6323863620000
	[0x7e6c0000, line 0x7e6c0000] : 6323946440500
	[0x71b90000, line 0x71b90000] : 6324014923000
	[0x7e0f0000, line 0x7e0f0000] : 6324088780500
	[0x7e210000, line 0x7e210000] : 6324178145000
	[0x2fc0000, line 0x2fc0000] : 6324597450000

BEFORE : access address is [0x73070000, line 0x73070000]
	[0x76f00000, line 0x76f00000] : 6324685987500
	[0x7ecc0000, line 0x7ecc0000] : 6323495748000
	[0x7ed30000, line 0x7ed30000] : 6323559861000
	[0x76800000, line 0x76800000] : 6323565270000
	[0x100000, line 0x100000] : 6324588568500
	[0x7e850000, line 0x7e850000] : 6323702110500
	[0x7ea60000, line 0x7ea60000] : 6323762182500
	[0x76ef0000, line 0x76ef0000] : 6323809850500
	[0x71b60000, line 0x71b60000] : 6323816139500
	[0x7e5a0000, line 0x7e5a0000] : 6323863620000
	[0x7e6c0000, line 0x7e6c0000] : 6323946440500
	[0x71b90000, line 0x71b90000] : 6324014923000
	[0x7e0f0000, line 0x7e0f0000] : 6324088780500
	[0x7e210000, line 0x7e210000] : 6324178145000
	[0x2fc0000, line 0x2fc0000] : 6324597450000

AFTER : access address is [0x73070000, line 0x73070000]
	[0x76f00000, line 0x76f00000] : 6324685987500
	[0x73070000, line 0x73070000] : 0
	[0x7ecc0000, line 0x7ecc0000] : 6323495748000
	[0x7ed30000, line 0x7ed30000] : 6323559861000
	[0x76800000, line 0x76800000] : 6323565270000
	[0x100000, line 0x100000] : 6324588568500
	[0x7e850000, line 0x7e850000] : 6323702110500
	[0x7ea60000, line 0x7ea60000] : 6323762182500
	[0x76ef0000, line 0x76ef0000] : 6323809850500
	[0x71b60000, line 0x71b60000] : 6323816139500
	[0x7e5a0000, line 0x7e5a0000] : 6323863620000
	[0x7e6c0000, line 0x7e6c0000] : 6323946440500
	[0x71b90000, line 0x71b90000] : 6324014923000
	[0x7e0f0000, line 0x7e0f0000] : 6324088780500
	[0x7e210000, line 0x7e210000] : 6324178145000
	[0x2fc0000, line 0x2fc0000] : 6324597450000

BEFORE : access address is [0x7e490000, line 0x7e490000]
	[0x76f00000, line 0x76f00000] : 6324685987500
	[0x73070000, line 0x73070000] : 0
	[0x7ecc0000, line 0x7ecc0000] : 6323495748000
	[0x7ed30000, line 0x7ed30000] : 6323559861000
	[0x76800000, line 0x76800000] : 6323565270000
	[0x100000, line 0x100000] : 6324588568500
	[0x7e850000, line 0x7e850000] : 6323702110500
	[0x7ea60000, line 0x7ea60000] : 6323762182500
	[0x76ef0000, line 0x76ef0000] : 6323809850500
	[0x71b60000, line 0x71b60000] : 6323816139500
	[0x7e5a0000, line 0x7e5a0000] : 6323863620000
	[0x7e6c0000, line 0x7e6c0000] : 6323946440500
	[0x71b90000, line 0x71b90000] : 6324014923000
	[0x7e0f0000, line 0x7e0f0000] : 6324088780500
	[0x7e210000, line 0x7e210000] : 6324178145000
	[0x2fc0000, line 0x2fc0000] : 6324597450000

BEFORE : access address is [0x7e490000, line 0x7e490000]
	[0x76f00000, line 0x76f00000] : 6324685987500
	[0x7ecc0000, line 0x7ecc0000] : 6323495748000
	[0x7ed30000, line 0x7ed30000] : 6323559861000
	[0x76800000, line 0x76800000] : 6323565270000
	[0x100000, line 0x100000] : 6324588568500
	[0x7e850000, line 0x7e850000] : 6323702110500
	[0x7ea60000, line 0x7ea60000] : 6323762182500
	[0x76ef0000, line 0x76ef0000] : 6323809850500
	[0x71b60000, line 0x71b60000] : 6323816139500
	[0x7e5a0000, line 0x7e5a0000] : 6323863620000
	[0x7e6c0000, line 0x7e6c0000] : 6323946440500
	[0x71b90000, line 0x71b90000] : 6324014923000
	[0x7e0f0000, line 0x7e0f0000] : 6324088780500
	[0x7e210000, line 0x7e210000] : 6324178145000
	[0x2fc0000, line 0x2fc0000] : 6324597450000

AFTER : access address is [0x7e490000, line 0x7e490000]
	[0x76f00000, line 0x76f00000] : 6324685987500
	[0x7e490000, line 0x7e490000] : 0
	[0x7ecc0000, line 0x7ecc0000] : 6323495748000
	[0x7ed30000, line 0x7ed30000] : 6323559861000
	[0x76800000, line 0x76800000] : 6323565270000
	[0x100000, line 0x100000] : 6324588568500
	[0x7e850000, line 0x7e850000] : 6323702110500
	[0x7ea60000, line 0x7ea60000] : 6323762182500
	[0x76ef0000, line 0x76ef0000] : 6323809850500
	[0x71b60000, line 0x71b60000] : 6323816139500
	[0x7e5a0000, line 0x7e5a0000] : 6323863620000
	[0x7e6c0000, line 0x7e6c0000] : 6323946440500
	[0x71b90000, line 0x71b90000] : 6324014923000
	[0x7e0f0000, line 0x7e0f0000] : 6324088780500
	[0x7e210000, line 0x7e210000] : 6324178145000
	[0x2fc0000, line 0x2fc0000] : 6324597450000

BEFORE : access address is [0x7daf0000, line 0x7daf0000]
	[0x76f00000, line 0x76f00000] : 6324685987500
	[0x7e490000, line 0x7e490000] : 0
	[0x7ecc0000, line 0x7ecc0000] : 6323495748000
	[0x7ed30000, line 0x7ed30000] : 6323559861000
	[0x76800000, line 0x76800000] : 6323565270000
	[0x100000, line 0x100000] : 6324588568500
	[0x7e850000, line 0x7e850000] : 6323702110500
	[0x7ea60000, line 0x7ea60000] : 6323762182500
	[0x76ef0000, line 0x76ef0000] : 6323809850500
	[0x71b60000, line 0x71b60000] : 6323816139500
	[0x7e5a0000, line 0x7e5a0000] : 6323863620000
	[0x7e6c0000, line 0x7e6c0000] : 6323946440500
	[0x71b90000, line 0x71b90000] : 6324014923000
	[0x7e0f0000, line 0x7e0f0000] : 6324088780500
	[0x7e210000, line 0x7e210000] : 6324178145000
	[0x2fc0000, line 0x2fc0000] : 6324597450000

BEFORE : access address is [0x7daf0000, line 0x7daf0000]
	[0x76f00000, line 0x76f00000] : 6324685987500
	[0x7ecc0000, line 0x7ecc0000] : 6323495748000
	[0x7ed30000, line 0x7ed30000] : 6323559861000
	[0x76800000, line 0x76800000] : 6323565270000
	[0x100000, line 0x100000] : 6324588568500
	[0x7e850000, line 0x7e850000] : 6323702110500
	[0x7ea60000, line 0x7ea60000] : 6323762182500
	[0x76ef0000, line 0x76ef0000] : 6323809850500
	[0x71b60000, line 0x71b60000] : 6323816139500
	[0x7e5a0000, line 0x7e5a0000] : 6323863620000
	[0x7e6c0000, line 0x7e6c0000] : 6323946440500
	[0x71b90000, line 0x71b90000] : 6324014923000
	[0x7e0f0000, line 0x7e0f0000] : 6324088780500
	[0x7e210000, line 0x7e210000] : 6324178145000
	[0x2fc0000, line 0x2fc0000] : 6324597450000

AFTER : access address is [0x7daf0000, line 0x7daf0000]
	[0x76f00000, line 0x76f00000] : 6324685987500
	[0x7daf0000, line 0x7daf0000] : 0
	[0x7ecc0000, line 0x7ecc0000] : 6323495748000
	[0x7ed30000, line 0x7ed30000] : 6323559861000
	[0x76800000, line 0x76800000] : 6323565270000
	[0x100000, line 0x100000] : 6324588568500
	[0x7e850000, line 0x7e850000] : 6323702110500
	[0x7ea60000, line 0x7ea60000] : 6323762182500
	[0x76ef0000, line 0x76ef0000] : 6323809850500
	[0x71b60000, line 0x71b60000] : 6323816139500
	[0x7e5a0000, line 0x7e5a0000] : 6323863620000
	[0x7e6c0000, line 0x7e6c0000] : 6323946440500
	[0x71b90000, line 0x71b90000] : 6324014923000
	[0x7e0f0000, line 0x7e0f0000] : 6324088780500
	[0x7e210000, line 0x7e210000] : 6324178145000
	[0x2fc0000, line 0x2fc0000] : 6324597450000

BEFORE : access address is [0x76f00000, line 0x76f00000]
	[0x76f00000, line 0x76f00000] : 6324685987500
	[0x7daf0000, line 0x7daf0000] : 0
	[0x7ecc0000, line 0x7ecc0000] : 6323495748000
	[0x7ed30000, line 0x7ed30000] : 6323559861000
	[0x76800000, line 0x76800000] : 6323565270000
	[0x100000, line 0x100000] : 6324588568500
	[0x7e850000, line 0x7e850000] : 6323702110500
	[0x7ea60000, line 0x7ea60000] : 6323762182500
	[0x76ef0000, line 0x76ef0000] : 6323809850500
	[0x71b60000, line 0x71b60000] : 6323816139500
	[0x7e5a0000, line 0x7e5a0000] : 6323863620000
	[0x7e6c0000, line 0x7e6c0000] : 6323946440500
	[0x71b90000, line 0x71b90000] : 6324014923000
	[0x7e0f0000, line 0x7e0f0000] : 6324088780500
	[0x7e210000, line 0x7e210000] : 6324178145000
	[0x2fc0000, line 0x2fc0000] : 6324597450000

BEFORE : access address is [0x7daf0000, line 0x7daf0000]
	[0x76f00000, line 0x76f00000] : 6324685987500
	[0x7daf0000, line 0x7daf0000] : 0
	[0x7ecc0000, line 0x7ecc0000] : 6323495748000
	[0x7ed30000, line 0x7ed30000] : 6323559861000
	[0x76800000, line 0x76800000] : 6323565270000
	[0x100000, line 0x100000] : 6324588568500
	[0x7e850000, line 0x7e850000] : 6323702110500
	[0x7ea60000, line 0x7ea60000] : 6323762182500
	[0x76ef0000, line 0x76ef0000] : 6323809850500
	[0x71b60000, line 0x71b60000] : 6323816139500
	[0x7e5a0000, line 0x7e5a0000] : 6323863620000
	[0x7e6c0000, line 0x7e6c0000] : 6323946440500
	[0x71b90000, line 0x71b90000] : 6324014923000
	[0x7e0f0000, line 0x7e0f0000] : 6324088780500
	[0x7e210000, line 0x7e210000] : 6324178145000
	[0x2fc0000, line 0x2fc0000] : 6324597450000

BEFORE : access address is [0x7dbe0000, line 0x7dbe0000]
	[0x76f00000, line 0x76f00000] : 6324685987500
	[0x7daf0000, line 0x7daf0000] : 0
	[0x7ecc0000, line 0x7ecc0000] : 6323495748000
	[0x7ed30000, line 0x7ed30000] : 6323559861000
	[0x76800000, line 0x76800000] : 6323565270000
	[0x100000, line 0x100000] : 6324588568500
	[0x7e850000, line 0x7e850000] : 6323702110500
	[0x7ea60000, line 0x7ea60000] : 6323762182500
	[0x76ef0000, line 0x76ef0000] : 6323809850500
	[0x71b60000, line 0x71b60000] : 6323816139500
	[0x7e5a0000, line 0x7e5a0000] : 6323863620000
	[0x7e6c0000, line 0x7e6c0000] : 6323946440500
	[0x71b90000, line 0x71b90000] : 6324014923000
	[0x7e0f0000, line 0x7e0f0000] : 6324088780500
	[0x7e210000, line 0x7e210000] : 6324178145000
	[0x2fc0000, line 0x2fc0000] : 6324597450000

BEFORE : access address is [0x7dbe0000, line 0x7dbe0000]
	[0x76f00000, line 0x76f00000] : 6324685987500
	[0x7ecc0000, line 0x7ecc0000] : 6323495748000
	[0x7ed30000, line 0x7ed30000] : 6323559861000
	[0x76800000, line 0x76800000] : 6323565270000
	[0x100000, line 0x100000] : 6324588568500
	[0x7e850000, line 0x7e850000] : 6323702110500
	[0x7ea60000, line 0x7ea60000] : 6323762182500
	[0x76ef0000, line 0x76ef0000] : 6323809850500
	[0x71b60000, line 0x71b60000] : 6323816139500
	[0x7e5a0000, line 0x7e5a0000] : 6323863620000
	[0x7e6c0000, line 0x7e6c0000] : 6323946440500
	[0x71b90000, line 0x71b90000] : 6324014923000
	[0x7e0f0000, line 0x7e0f0000] : 6324088780500
	[0x7e210000, line 0x7e210000] : 6324178145000
	[0x2fc0000, line 0x2fc0000] : 6324597450000

AFTER : access address is [0x7dbe0000, line 0x7dbe0000]
	[0x76f00000, line 0x76f00000] : 6324685987500
	[0x7dbe0000, line 0x7dbe0000] : 0
	[0x7ecc0000, line 0x7ecc0000] : 6323495748000
	[0x7ed30000, line 0x7ed30000] : 6323559861000
	[0x76800000, line 0x76800000] : 6323565270000
	[0x100000, line 0x100000] : 6324588568500
	[0x7e850000, line 0x7e850000] : 6323702110500
	[0x7ea60000, line 0x7ea60000] : 6323762182500
	[0x76ef0000, line 0x76ef0000] : 6323809850500
	[0x71b60000, line 0x71b60000] : 6323816139500
	[0x7e5a0000, line 0x7e5a0000] : 6323863620000
	[0x7e6c0000, line 0x7e6c0000] : 6323946440500
	[0x71b90000, line 0x71b90000] : 6324014923000
	[0x7e0f0000, line 0x7e0f0000] : 6324088780500
	[0x7e210000, line 0x7e210000] : 6324178145000
	[0x2fc0000, line 0x2fc0000] : 6324597450000

BEFORE : access address is [0x7dbe0000, line 0x7dbe0000]
	[0x76f00000, line 0x76f00000] : 6324685987500
	[0x7dbe0000, line 0x7dbe0000] : 0
	[0x7ecc0000, line 0x7ecc0000] : 6323495748000
	[0x7ed30000, line 0x7ed30000] : 6323559861000
	[0x76800000, line 0x76800000] : 6323565270000
	[0x100000, line 0x100000] : 6324588568500
	[0x7e850000, line 0x7e850000] : 6323702110500
	[0x7ea60000, line 0x7ea60000] : 6323762182500
	[0x76ef0000, line 0x76ef0000] : 6323809850500
	[0x71b60000, line 0x71b60000] : 6323816139500
	[0x7e5a0000, line 0x7e5a0000] : 6323863620000
	[0x7e6c0000, line 0x7e6c0000] : 6323946440500
	[0x71b90000, line 0x71b90000] : 6324014923000
	[0x7e0f0000, line 0x7e0f0000] : 6324088780500
	[0x7e210000, line 0x7e210000] : 6324178145000
	[0x2fc0000, line 0x2fc0000] : 6324597450000

BEFORE : access address is [0x7d530000, line 0x7d530000]
	[0x76f00000, line 0x76f00000] : 6324685987500
	[0x7dbe0000, line 0x7dbe0000] : 0
	[0x7ecc0000, line 0x7ecc0000] : 6323495748000
	[0x7ed30000, line 0x7ed30000] : 6323559861000
	[0x76800000, line 0x76800000] : 6323565270000
	[0x100000, line 0x100000] : 6324588568500
	[0x7e850000, line 0x7e850000] : 6323702110500
	[0x7ea60000, line 0x7ea60000] : 6323762182500
	[0x76ef0000, line 0x76ef0000] : 6323809850500
	[0x71b60000, line 0x71b60000] : 6323816139500
	[0x7e5a0000, line 0x7e5a0000] : 6323863620000
	[0x7e6c0000, line 0x7e6c0000] : 6323946440500
	[0x71b90000, line 0x71b90000] : 6324014923000
	[0x7e0f0000, line 0x7e0f0000] : 6324088780500
	[0x7e210000, line 0x7e210000] : 6324178145000
	[0x2fc0000, line 0x2fc0000] : 6324597450000

BEFORE : access address is [0x7d530000, line 0x7d530000]
	[0x76f00000, line 0x76f00000] : 6324685987500
	[0x7ecc0000, line 0x7ecc0000] : 6323495748000
	[0x7ed30000, line 0x7ed30000] : 6323559861000
	[0x76800000, line 0x76800000] : 6323565270000
	[0x100000, line 0x100000] : 6324588568500
	[0x7e850000, line 0x7e850000] : 6323702110500
	[0x7ea60000, line 0x7ea60000] : 6323762182500
	[0x76ef0000, line 0x76ef0000] : 6323809850500
	[0x71b60000, line 0x71b60000] : 6323816139500
	[0x7e5a0000, line 0x7e5a0000] : 6323863620000
	[0x7e6c0000, line 0x7e6c0000] : 6323946440500
	[0x71b90000, line 0x71b90000] : 6324014923000
	[0x7e0f0000, line 0x7e0f0000] : 6324088780500
	[0x7e210000, line 0x7e210000] : 6324178145000
	[0x2fc0000, line 0x2fc0000] : 6324597450000

AFTER : access address is [0x7d530000, line 0x7d530000]
	[0x76f00000, line 0x76f00000] : 6324685987500
	[0x7d530000, line 0x7d530000] : 0
	[0x7ecc0000, line 0x7ecc0000] : 6323495748000
	[0x7ed30000, line 0x7ed30000] : 6323559861000
	[0x76800000, line 0x76800000] : 6323565270000
	[0x100000, line 0x100000] : 6324588568500
	[0x7e850000, line 0x7e850000] : 6323702110500
	[0x7ea60000, line 0x7ea60000] : 6323762182500
	[0x76ef0000, line 0x76ef0000] : 6323809850500
	[0x71b60000, line 0x71b60000] : 6323816139500
	[0x7e5a0000, line 0x7e5a0000] : 6323863620000
	[0x7e6c0000, line 0x7e6c0000] : 6323946440500
	[0x71b90000, line 0x71b90000] : 6324014923000
	[0x7e0f0000, line 0x7e0f0000] : 6324088780500
	[0x7e210000, line 0x7e210000] : 6324178145000
	[0x2fc0000, line 0x2fc0000] : 6324597450000

BEFORE : access address is [0x7d530000, line 0x7d530000]
	[0x76f00000, line 0x76f00000] : 6324685987500
	[0x7d530000, line 0x7d530000] : 0
	[0x7ecc0000, line 0x7ecc0000] : 6323495748000
	[0x7ed30000, line 0x7ed30000] : 6323559861000
	[0x76800000, line 0x76800000] : 6323565270000
	[0x100000, line 0x100000] : 6324588568500
	[0x7e850000, line 0x7e850000] : 6323702110500
	[0x7ea60000, line 0x7ea60000] : 6323762182500
	[0x76ef0000, line 0x76ef0000] : 6323809850500
	[0x71b60000, line 0x71b60000] : 6323816139500
	[0x7e5a0000, line 0x7e5a0000] : 6323863620000
	[0x7e6c0000, line 0x7e6c0000] : 6323946440500
	[0x71b90000, line 0x71b90000] : 6324014923000
	[0x7e0f0000, line 0x7e0f0000] : 6324088780500
	[0x7e210000, line 0x7e210000] : 6324178145000
	[0x2fc0000, line 0x2fc0000] : 6324597450000

BEFORE : access address is [0x7d630000, line 0x7d630000]
	[0x76f00000, line 0x76f00000] : 6324685987500
	[0x7d530000, line 0x7d530000] : 0
	[0x7ecc0000, line 0x7ecc0000] : 6323495748000
	[0x7ed30000, line 0x7ed30000] : 6323559861000
	[0x76800000, line 0x76800000] : 6323565270000
	[0x100000, line 0x100000] : 6324588568500
	[0x7e850000, line 0x7e850000] : 6323702110500
	[0x7ea60000, line 0x7ea60000] : 6323762182500
	[0x76ef0000, line 0x76ef0000] : 6323809850500
	[0x71b60000, line 0x71b60000] : 6323816139500
	[0x7e5a0000, line 0x7e5a0000] : 6323863620000
	[0x7e6c0000, line 0x7e6c0000] : 6323946440500
	[0x71b90000, line 0x71b90000] : 6324014923000
	[0x7e0f0000, line 0x7e0f0000] : 6324088780500
	[0x7e210000, line 0x7e210000] : 6324178145000
	[0x2fc0000, line 0x2fc0000] : 6324597450000

BEFORE : access address is [0x7d630000, line 0x7d630000]
	[0x76f00000, line 0x76f00000] : 6324685987500
	[0x7ecc0000, line 0x7ecc0000] : 6323495748000
	[0x7ed30000, line 0x7ed30000] : 6323559861000
	[0x76800000, line 0x76800000] : 6323565270000
	[0x100000, line 0x100000] : 6324588568500
	[0x7e850000, line 0x7e850000] : 6323702110500
	[0x7ea60000, line 0x7ea60000] : 6323762182500
	[0x76ef0000, line 0x76ef0000] : 6323809850500
	[0x71b60000, line 0x71b60000] : 6323816139500
	[0x7e5a0000, line 0x7e5a0000] : 6323863620000
	[0x7e6c0000, line 0x7e6c0000] : 6323946440500
	[0x71b90000, line 0x71b90000] : 6324014923000
	[0x7e0f0000, line 0x7e0f0000] : 6324088780500
	[0x7e210000, line 0x7e210000] : 6324178145000
	[0x2fc0000, line 0x2fc0000] : 6324597450000

AFTER : access address is [0x7d630000, line 0x7d630000]
	[0x76f00000, line 0x76f00000] : 6324685987500
	[0x7d630000, line 0x7d630000] : 0
	[0x7ecc0000, line 0x7ecc0000] : 6323495748000
	[0x7ed30000, line 0x7ed30000] : 6323559861000
	[0x76800000, line 0x76800000] : 6323565270000
	[0x100000, line 0x100000] : 6324588568500
	[0x7e850000, line 0x7e850000] : 6323702110500
	[0x7ea60000, line 0x7ea60000] : 6323762182500
	[0x76ef0000, line 0x76ef0000] : 6323809850500
	[0x71b60000, line 0x71b60000] : 6323816139500
	[0x7e5a0000, line 0x7e5a0000] : 6323863620000
	[0x7e6c0000, line 0x7e6c0000] : 6323946440500
	[0x71b90000, line 0x71b90000] : 6324014923000
	[0x7e0f0000, line 0x7e0f0000] : 6324088780500
	[0x7e210000, line 0x7e210000] : 6324178145000
	[0x2fc0000, line 0x2fc0000] : 6324597450000

BEFORE : access address is [0x7d640000, line 0x7d640000]
	[0x76f00000, line 0x76f00000] : 6324685987500
	[0x7d630000, line 0x7d630000] : 0
	[0x7ecc0000, line 0x7ecc0000] : 6323495748000
	[0x7ed30000, line 0x7ed30000] : 6323559861000
	[0x76800000, line 0x76800000] : 6323565270000
	[0x100000, line 0x100000] : 6324588568500
	[0x7e850000, line 0x7e850000] : 6323702110500
	[0x7ea60000, line 0x7ea60000] : 6323762182500
	[0x76ef0000, line 0x76ef0000] : 6323809850500
	[0x71b60000, line 0x71b60000] : 6323816139500
	[0x7e5a0000, line 0x7e5a0000] : 6323863620000
	[0x7e6c0000, line 0x7e6c0000] : 6323946440500
	[0x71b90000, line 0x71b90000] : 6324014923000
	[0x7e0f0000, line 0x7e0f0000] : 6324088780500
	[0x7e210000, line 0x7e210000] : 6324178145000
	[0x2fc0000, line 0x2fc0000] : 6324597450000

BEFORE : access address is [0x7d640000, line 0x7d640000]
	[0x76f00000, line 0x76f00000] : 6324685987500
	[0x7ecc0000, line 0x7ecc0000] : 6323495748000
	[0x7ed30000, line 0x7ed30000] : 6323559861000
	[0x76800000, line 0x76800000] : 6323565270000
	[0x100000, line 0x100000] : 6324588568500
	[0x7e850000, line 0x7e850000] : 6323702110500
	[0x7ea60000, line 0x7ea60000] : 6323762182500
	[0x76ef0000, line 0x76ef0000] : 6323809850500
	[0x71b60000, line 0x71b60000] : 6323816139500
	[0x7e5a0000, line 0x7e5a0000] : 6323863620000
	[0x7e6c0000, line 0x7e6c0000] : 6323946440500
	[0x71b90000, line 0x71b90000] : 6324014923000
	[0x7e0f0000, line 0x7e0f0000] : 6324088780500
	[0x7e210000, line 0x7e210000] : 6324178145000
	[0x2fc0000, line 0x2fc0000] : 6324597450000

AFTER : access address is [0x7d640000, line 0x7d640000]
	[0x76f00000, line 0x76f00000] : 6324685987500
	[0x7d640000, line 0x7d640000] : 0
	[0x7ecc0000, line 0x7ecc0000] : 6323495748000
	[0x7ed30000, line 0x7ed30000] : 6323559861000
	[0x76800000, line 0x76800000] : 6323565270000
	[0x100000, line 0x100000] : 6324588568500
	[0x7e850000, line 0x7e850000] : 6323702110500
	[0x7ea60000, line 0x7ea60000] : 6323762182500
	[0x76ef0000, line 0x76ef0000] : 6323809850500
	[0x71b60000, line 0x71b60000] : 6323816139500
	[0x7e5a0000, line 0x7e5a0000] : 6323863620000
	[0x7e6c0000, line 0x7e6c0000] : 6323946440500
	[0x71b90000, line 0x71b90000] : 6324014923000
	[0x7e0f0000, line 0x7e0f0000] : 6324088780500
	[0x7e210000, line 0x7e210000] : 6324178145000
	[0x2fc0000, line 0x2fc0000] : 6324597450000

BEFORE : access address is [0x7d640000, line 0x7d640000]
	[0x76f00000, line 0x76f00000] : 6324685987500
	[0x7d640000, line 0x7d640000] : 0
	[0x7ecc0000, line 0x7ecc0000] : 6323495748000
	[0x7ed30000, line 0x7ed30000] : 6323559861000
	[0x76800000, line 0x76800000] : 6323565270000
	[0x100000, line 0x100000] : 6324588568500
	[0x7e850000, line 0x7e850000] : 6323702110500
	[0x7ea60000, line 0x7ea60000] : 6323762182500
	[0x76ef0000, line 0x76ef0000] : 6323809850500
	[0x71b60000, line 0x71b60000] : 6323816139500
	[0x7e5a0000, line 0x7e5a0000] : 6323863620000
	[0x7e6c0000, line 0x7e6c0000] : 6323946440500
	[0x71b90000, line 0x71b90000] : 6324014923000
	[0x7e0f0000, line 0x7e0f0000] : 6324088780500
	[0x7e210000, line 0x7e210000] : 6324178145000
	[0x2fc0000, line 0x2fc0000] : 6324597450000

BEFORE : access address is [0x7ec60000, line 0x7ec60000]
	[0x76f00000, line 0x76f00000] : 6324685987500
	[0x7d640000, line 0x7d640000] : 0
	[0x7ecc0000, line 0x7ecc0000] : 6323495748000
	[0x7ed30000, line 0x7ed30000] : 6323559861000
	[0x76800000, line 0x76800000] : 6323565270000
	[0x100000, line 0x100000] : 6324588568500
	[0x7e850000, line 0x7e850000] : 6323702110500
	[0x7ea60000, line 0x7ea60000] : 6323762182500
	[0x76ef0000, line 0x76ef0000] : 6323809850500
	[0x71b60000, line 0x71b60000] : 6323816139500
	[0x7e5a0000, line 0x7e5a0000] : 6323863620000
	[0x7e6c0000, line 0x7e6c0000] : 6323946440500
	[0x71b90000, line 0x71b90000] : 6324014923000
	[0x7e0f0000, line 0x7e0f0000] : 6324088780500
	[0x7e210000, line 0x7e210000] : 6324178145000
	[0x2fc0000, line 0x2fc0000] : 6324597450000

BEFORE : access address is [0x7ec60000, line 0x7ec60000]
	[0x76f00000, line 0x76f00000] : 6324685987500
	[0x7ecc0000, line 0x7ecc0000] : 6323495748000
	[0x7ed30000, line 0x7ed30000] : 6323559861000
	[0x76800000, line 0x76800000] : 6323565270000
	[0x100000, line 0x100000] : 6324588568500
	[0x7e850000, line 0x7e850000] : 6323702110500
	[0x7ea60000, line 0x7ea60000] : 6323762182500
	[0x76ef0000, line 0x76ef0000] : 6323809850500
	[0x71b60000, line 0x71b60000] : 6323816139500
	[0x7e5a0000, line 0x7e5a0000] : 6323863620000
	[0x7e6c0000, line 0x7e6c0000] : 6323946440500
	[0x71b90000, line 0x71b90000] : 6324014923000
	[0x7e0f0000, line 0x7e0f0000] : 6324088780500
	[0x7e210000, line 0x7e210000] : 6324178145000
	[0x2fc0000, line 0x2fc0000] : 6324597450000

AFTER : access address is [0x7ec60000, line 0x7ec60000]
	[0x76f00000, line 0x76f00000] : 6324685987500
	[0x7ec60000, line 0x7ec60000] : 0
	[0x7ecc0000, line 0x7ecc0000] : 6323495748000
	[0x7ed30000, line 0x7ed30000] : 6323559861000
	[0x76800000, line 0x76800000] : 6323565270000
	[0x100000, line 0x100000] : 6324588568500
	[0x7e850000, line 0x7e850000] : 6323702110500
	[0x7ea60000, line 0x7ea60000] : 6323762182500
	[0x76ef0000, line 0x76ef0000] : 6323809850500
	[0x71b60000, line 0x71b60000] : 6323816139500
	[0x7e5a0000, line 0x7e5a0000] : 6323863620000
	[0x7e6c0000, line 0x7e6c0000] : 6323946440500
	[0x71b90000, line 0x71b90000] : 6324014923000
	[0x7e0f0000, line 0x7e0f0000] : 6324088780500
	[0x7e210000, line 0x7e210000] : 6324178145000
	[0x2fc0000, line 0x2fc0000] : 6324597450000

BEFORE : access address is [0x7ec60000, line 0x7ec60000]
	[0x76f00000, line 0x76f00000] : 6324685987500
	[0x7ec60000, line 0x7ec60000] : 0
	[0x7ecc0000, line 0x7ecc0000] : 6323495748000
	[0x7ed30000, line 0x7ed30000] : 6323559861000
	[0x76800000, line 0x76800000] : 6323565270000
	[0x100000, line 0x100000] : 6324588568500
	[0x7e850000, line 0x7e850000] : 6323702110500
	[0x7ea60000, line 0x7ea60000] : 6323762182500
	[0x76ef0000, line 0x76ef0000] : 6323809850500
	[0x71b60000, line 0x71b60000] : 6323816139500
	[0x7e5a0000, line 0x7e5a0000] : 6323863620000
	[0x7e6c0000, line 0x7e6c0000] : 6323946440500
	[0x71b90000, line 0x71b90000] : 6324014923000
	[0x7e0f0000, line 0x7e0f0000] : 6324088780500
	[0x7e210000, line 0x7e210000] : 6324178145000
	[0x2fc0000, line 0x2fc0000] : 6324597450000

BEFORE : access address is [0x76820000, line 0x76820000]
	[0x76f00000, line 0x76f00000] : 6324685987500
	[0x7ec60000, line 0x7ec60000] : 0
	[0x7ecc0000, line 0x7ecc0000] : 6323495748000
	[0x7ed30000, line 0x7ed30000] : 6323559861000
	[0x76800000, line 0x76800000] : 6323565270000
	[0x100000, line 0x100000] : 6324588568500
	[0x7e850000, line 0x7e850000] : 6323702110500
	[0x7ea60000, line 0x7ea60000] : 6323762182500
	[0x76ef0000, line 0x76ef0000] : 6323809850500
	[0x71b60000, line 0x71b60000] : 6323816139500
	[0x7e5a0000, line 0x7e5a0000] : 6323863620000
	[0x7e6c0000, line 0x7e6c0000] : 6323946440500
	[0x71b90000, line 0x71b90000] : 6324014923000
	[0x7e0f0000, line 0x7e0f0000] : 6324088780500
	[0x7e210000, line 0x7e210000] : 6324178145000
	[0x2fc0000, line 0x2fc0000] : 6324597450000

BEFORE : access address is [0x76820000, line 0x76820000]
	[0x76f00000, line 0x76f00000] : 6324685987500
	[0x7ecc0000, line 0x7ecc0000] : 6323495748000
	[0x7ed30000, line 0x7ed30000] : 6323559861000
	[0x76800000, line 0x76800000] : 6323565270000
	[0x100000, line 0x100000] : 6324588568500
	[0x7e850000, line 0x7e850000] : 6323702110500
	[0x7ea60000, line 0x7ea60000] : 6323762182500
	[0x76ef0000, line 0x76ef0000] : 6323809850500
	[0x71b60000, line 0x71b60000] : 6323816139500
	[0x7e5a0000, line 0x7e5a0000] : 6323863620000
	[0x7e6c0000, line 0x7e6c0000] : 6323946440500
	[0x71b90000, line 0x71b90000] : 6324014923000
	[0x7e0f0000, line 0x7e0f0000] : 6324088780500
	[0x7e210000, line 0x7e210000] : 6324178145000
	[0x2fc0000, line 0x2fc0000] : 6324597450000

AFTER : access address is [0x76820000, line 0x76820000]
	[0x76f00000, line 0x76f00000] : 6324685987500
	[0x76820000, line 0x76820000] : 0
	[0x7ecc0000, line 0x7ecc0000] : 6323495748000
	[0x7ed30000, line 0x7ed30000] : 6323559861000
	[0x76800000, line 0x76800000] : 6323565270000
	[0x100000, line 0x100000] : 6324588568500
	[0x7e850000, line 0x7e850000] : 6323702110500
	[0x7ea60000, line 0x7ea60000] : 6323762182500
	[0x76ef0000, line 0x76ef0000] : 6323809850500
	[0x71b60000, line 0x71b60000] : 6323816139500
	[0x7e5a0000, line 0x7e5a0000] : 6323863620000
	[0x7e6c0000, line 0x7e6c0000] : 6323946440500
	[0x71b90000, line 0x71b90000] : 6324014923000
	[0x7e0f0000, line 0x7e0f0000] : 6324088780500
	[0x7e210000, line 0x7e210000] : 6324178145000
	[0x2fc0000, line 0x2fc0000] : 6324597450000

BEFORE : access address is [0x76820000, line 0x76820000]
	[0x76f00000, line 0x76f00000] : 6324685987500
	[0x76820000, line 0x76820000] : 0
	[0x7ecc0000, line 0x7ecc0000] : 6323495748000
	[0x7ed30000, line 0x7ed30000] : 6323559861000
	[0x76800000, line 0x76800000] : 6323565270000
	[0x100000, line 0x100000] : 6324588568500
	[0x7e850000, line 0x7e850000] : 6323702110500
	[0x7ea60000, line 0x7ea60000] : 6323762182500
	[0x76ef0000, line 0x76ef0000] : 6323809850500
	[0x71b60000, line 0x71b60000] : 6323816139500
	[0x7e5a0000, line 0x7e5a0000] : 6323863620000
	[0x7e6c0000, line 0x7e6c0000] : 6323946440500
	[0x71b90000, line 0x71b90000] : 6324014923000
	[0x7e0f0000, line 0x7e0f0000] : 6324088780500
	[0x7e210000, line 0x7e210000] : 6324178145000
	[0x2fc0000, line 0x2fc0000] : 6324597450000

BEFORE : access address is [0x7e0e0000, line 0x7e0e0000]
	[0x76f00000, line 0x76f00000] : 6324685987500
	[0x76820000, line 0x76820000] : 0
	[0x7ecc0000, line 0x7ecc0000] : 6323495748000
	[0x7ed30000, line 0x7ed30000] : 6323559861000
	[0x76800000, line 0x76800000] : 6323565270000
	[0x100000, line 0x100000] : 6324588568500
	[0x7e850000, line 0x7e850000] : 6323702110500
	[0x7ea60000, line 0x7ea60000] : 6323762182500
	[0x76ef0000, line 0x76ef0000] : 6323809850500
	[0x71b60000, line 0x71b60000] : 6323816139500
	[0x7e5a0000, line 0x7e5a0000] : 6323863620000
	[0x7e6c0000, line 0x7e6c0000] : 6323946440500
	[0x71b90000, line 0x71b90000] : 6324014923000
	[0x7e0f0000, line 0x7e0f0000] : 6324088780500
	[0x7e210000, line 0x7e210000] : 6324178145000
	[0x2fc0000, line 0x2fc0000] : 6324597450000

BEFORE : access address is [0x7e0e0000, line 0x7e0e0000]
	[0x76f00000, line 0x76f00000] : 6324685987500
	[0x7ecc0000, line 0x7ecc0000] : 6323495748000
	[0x7ed30000, line 0x7ed30000] : 6323559861000
	[0x76800000, line 0x76800000] : 6323565270000
	[0x100000, line 0x100000] : 6324588568500
	[0x7e850000, line 0x7e850000] : 6323702110500
	[0x7ea60000, line 0x7ea60000] : 6323762182500
	[0x76ef0000, line 0x76ef0000] : 6323809850500
	[0x71b60000, line 0x71b60000] : 6323816139500
	[0x7e5a0000, line 0x7e5a0000] : 6323863620000
	[0x7e6c0000, line 0x7e6c0000] : 6323946440500
	[0x71b90000, line 0x71b90000] : 6324014923000
	[0x7e0f0000, line 0x7e0f0000] : 6324088780500
	[0x7e210000, line 0x7e210000] : 6324178145000
	[0x2fc0000, line 0x2fc0000] : 6324597450000

AFTER : access address is [0x7e0e0000, line 0x7e0e0000]
	[0x76f00000, line 0x76f00000] : 6324685987500
	[0x7e0e0000, line 0x7e0e0000] : 0
	[0x7ecc0000, line 0x7ecc0000] : 6323495748000
	[0x7ed30000, line 0x7ed30000] : 6323559861000
	[0x76800000, line 0x76800000] : 6323565270000
	[0x100000, line 0x100000] : 6324588568500
	[0x7e850000, line 0x7e850000] : 6323702110500
	[0x7ea60000, line 0x7ea60000] : 6323762182500
	[0x76ef0000, line 0x76ef0000] : 6323809850500
	[0x71b60000, line 0x71b60000] : 6323816139500
	[0x7e5a0000, line 0x7e5a0000] : 6323863620000
	[0x7e6c0000, line 0x7e6c0000] : 6323946440500
	[0x71b90000, line 0x71b90000] : 6324014923000
	[0x7e0f0000, line 0x7e0f0000] : 6324088780500
	[0x7e210000, line 0x7e210000] : 6324178145000
	[0x2fc0000, line 0x2fc0000] : 6324597450000

BEFORE : access address is [0x7e0e0000, line 0x7e0e0000]
	[0x76f00000, line 0x76f00000] : 6324685987500
	[0x7e0e0000, line 0x7e0e0000] : 0
	[0x7ecc0000, line 0x7ecc0000] : 6323495748000
	[0x7ed30000, line 0x7ed30000] : 6323559861000
	[0x76800000, line 0x76800000] : 6323565270000
	[0x100000, line 0x100000] : 6324588568500
	[0x7e850000, line 0x7e850000] : 6323702110500
	[0x7ea60000, line 0x7ea60000] : 6323762182500
	[0x76ef0000, line 0x76ef0000] : 6323809850500
	[0x71b60000, line 0x71b60000] : 6323816139500
	[0x7e5a0000, line 0x7e5a0000] : 6323863620000
	[0x7e6c0000, line 0x7e6c0000] : 6323946440500
	[0x71b90000, line 0x71b90000] : 6324014923000
	[0x7e0f0000, line 0x7e0f0000] : 6324088780500
	[0x7e210000, line 0x7e210000] : 6324178145000
	[0x2fc0000, line 0x2fc0000] : 6324597450000

BEFORE : access address is [0x7ec50000, line 0x7ec50000]
	[0x76f00000, line 0x76f00000] : 6324685987500
	[0x7e0e0000, line 0x7e0e0000] : 0
	[0x7ecc0000, line 0x7ecc0000] : 6323495748000
	[0x7ed30000, line 0x7ed30000] : 6323559861000
	[0x76800000, line 0x76800000] : 6323565270000
	[0x100000, line 0x100000] : 6324588568500
	[0x7e850000, line 0x7e850000] : 6323702110500
	[0x7ea60000, line 0x7ea60000] : 6323762182500
	[0x76ef0000, line 0x76ef0000] : 6323809850500
	[0x71b60000, line 0x71b60000] : 6323816139500
	[0x7e5a0000, line 0x7e5a0000] : 6323863620000
	[0x7e6c0000, line 0x7e6c0000] : 6323946440500
	[0x71b90000, line 0x71b90000] : 6324014923000
	[0x7e0f0000, line 0x7e0f0000] : 6324088780500
	[0x7e210000, line 0x7e210000] : 6324178145000
	[0x2fc0000, line 0x2fc0000] : 6324597450000

BEFORE : access address is [0x7ec50000, line 0x7ec50000]
	[0x76f00000, line 0x76f00000] : 6324685987500
	[0x7ecc0000, line 0x7ecc0000] : 6323495748000
	[0x7ed30000, line 0x7ed30000] : 6323559861000
	[0x76800000, line 0x76800000] : 6323565270000
	[0x100000, line 0x100000] : 6324588568500
	[0x7e850000, line 0x7e850000] : 6323702110500
	[0x7ea60000, line 0x7ea60000] : 6323762182500
	[0x76ef0000, line 0x76ef0000] : 6323809850500
	[0x71b60000, line 0x71b60000] : 6323816139500
	[0x7e5a0000, line 0x7e5a0000] : 6323863620000
	[0x7e6c0000, line 0x7e6c0000] : 6323946440500
	[0x71b90000, line 0x71b90000] : 6324014923000
	[0x7e0f0000, line 0x7e0f0000] : 6324088780500
	[0x7e210000, line 0x7e210000] : 6324178145000
	[0x2fc0000, line 0x2fc0000] : 6324597450000

AFTER : access address is [0x7ec50000, line 0x7ec50000]
	[0x76f00000, line 0x76f00000] : 6324685987500
	[0x7ec50000, line 0x7ec50000] : 0
	[0x7ecc0000, line 0x7ecc0000] : 6323495748000
	[0x7ed30000, line 0x7ed30000] : 6323559861000
	[0x76800000, line 0x76800000] : 6323565270000
	[0x100000, line 0x100000] : 6324588568500
	[0x7e850000, line 0x7e850000] : 6323702110500
	[0x7ea60000, line 0x7ea60000] : 6323762182500
	[0x76ef0000, line 0x76ef0000] : 6323809850500
	[0x71b60000, line 0x71b60000] : 6323816139500
	[0x7e5a0000, line 0x7e5a0000] : 6323863620000
	[0x7e6c0000, line 0x7e6c0000] : 6323946440500
	[0x71b90000, line 0x71b90000] : 6324014923000
	[0x7e0f0000, line 0x7e0f0000] : 6324088780500
	[0x7e210000, line 0x7e210000] : 6324178145000
	[0x2fc0000, line 0x2fc0000] : 6324597450000

BEFORE : access address is [0x7ec50000, line 0x7ec50000]
	[0x76f00000, line 0x76f00000] : 6324685987500
	[0x7ec50000, line 0x7ec50000] : 0
	[0x7ecc0000, line 0x7ecc0000] : 6323495748000
	[0x7ed30000, line 0x7ed30000] : 6323559861000
	[0x76800000, line 0x76800000] : 6323565270000
	[0x100000, line 0x100000] : 6324588568500
[...]
	[0x7cc10000, line 0x7cc10000] : 6377235147500
	[0x76a80000, line 0x76a80000] : 6373958403500
	[0x76a00000, line 0x76a00000] : 6366361009500
	[0x2fc0000, line 0x2fc0000] : 6376595837000

AFTER : access address is [0x735f0000, line 0x735f0000]
	[0x76a20000, line 0x76a20000] : 6368410007000
	[0x735f0000, line 0x735f0000] : 6378777763500
	[0x76a30000, line 0x76a30000] : 6369333867000
	[0x7d2b0000, line 0x7d2b0000] : 6372943637500
	[0x7ecf0000, line 0x7ecf0000] : 6373324694500
	[0x100000, line 0x100000] : 6378101310500
	[0x73ba0000, line 0x73ba0000] : 0
	[0x76a40000, line 0x76a40000] : 6370254024500
	[0x7e5b0000, line 0x7e5b0000] : 6373824793500
	[0x7c160000, line 0x7c160000] : 6370645897500
	[0x7cb30000, line 0x7cb30000] : 6375303969000
	[0x76ab0000, line 0x76ab0000] : 6376704042000
	[0x7cc10000, line 0x7cc10000] : 6377235147500
	[0x76a80000, line 0x76a80000] : 6373958403500
	[0x76a00000, line 0x76a00000] : 6366361009500
	[0x2fc0000, line 0x2fc0000] : 6376595837000

BEFORE : access address is [0x735f0000, line 0x735f0000]
	[0x76a20000, line 0x76a20000] : 6368410007000
	[0x735f0000, line 0x735f0000] : 6378777763500
	[0x76a30000, line 0x76a30000] : 6369333867000
	[0x7d2b0000, line 0x7d2b0000] : 6372943637500
	[0x7ecf0000, line 0x7ecf0000] : 6373324694500
	[0x100000, line 0x100000] : 6378101310500
	[0x73ba0000, line 0x73ba0000] : 0
	[0x76a40000, line 0x76a40000] : 6370254024500
	[0x7e5b0000, line 0x7e5b0000] : 6373824793500
	[0x7c160000, line 0x7c160000] : 6370645897500
	[0x7cb30000, line 0x7cb30000] : 6375303969000
	[0x76ab0000, line 0x76ab0000] : 6376704042000
	[0x7cc10000, line 0x7cc10000] : 6377235147500
	[0x76a80000, line 0x76a80000] : 6373958403500
	[0x76a00000, line 0x76a00000] : 6366361009500
	[0x2fc0000, line 0x2fc0000] : 6376595837000

BEFORE : access address is [0x76b00000, line 0x76b00000]
	[0x76a20000, line 0x76a20000] : 6368410007000
	[0x735f0000, line 0x735f0000] : 6378777763500
	[0x76a30000, line 0x76a30000] : 6369333867000
	[0x7d2b0000, line 0x7d2b0000] : 6372943637500
	[0x7ecf0000, line 0x7ecf0000] : 6373324694500
	[0x100000, line 0x100000] : 6378101310500
	[0x73ba0000, line 0x73ba0000] : 0
	[0x76a40000, line 0x76a40000] : 6370254024500
	[0x7e5b0000, line 0x7e5b0000] : 6373824793500
	[0x7c160000, line 0x7c160000] : 6370645897500
	[0x7cb30000, line 0x7cb30000] : 6375303969000
	[0x76ab0000, line 0x76ab0000] : 6376704042000
	[0x7cc10000, line 0x7cc10000] : 6377235147500
	[0x76a80000, line 0x76a80000] : 6373958403500
	[0x76a00000, line 0x76a00000] : 6366361009500
	[0x2fc0000, line 0x2fc0000] : 6376595837000

BEFORE : access address is [0x76b00000, line 0x76b00000]
	[0x76a20000, line 0x76a20000] : 6368410007000
	[0x735f0000, line 0x735f0000] : 6378777763500
	[0x76a30000, line 0x76a30000] : 6369333867000
	[0x7d2b0000, line 0x7d2b0000] : 6372943637500
	[0x7ecf0000, line 0x7ecf0000] : 6373324694500
	[0x100000, line 0x100000] : 6378101310500
	[0x76a40000, line 0x76a40000] : 6370254024500
	[0x7e5b0000, line 0x7e5b0000] : 6373824793500
	[0x7c160000, line 0x7c160000] : 6370645897500
	[0x7cb30000, line 0x7cb30000] : 6375303969000
	[0x76ab0000, line 0x76ab0000] : 6376704042000
	[0x7cc10000, line 0x7cc10000] : 6377235147500
	[0x76a80000, line 0x76a80000] : 6373958403500
	[0x76a00000, line 0x76a00000] : 6366361009500
	[0x2fc0000, line 0x2fc0000] : 6376595837000

AFTER : access address is [0x76b00000, line 0x76b00000]
	[0x76a20000, line 0x76a20000] : 6368410007000
	[0x735f0000, line 0x735f0000] : 6378777763500
	[0x76a30000, line 0x76a30000] : 6369333867000
	[0x7d2b0000, line 0x7d2b0000] : 6372943637500
	[0x7ecf0000, line 0x7ecf0000] : 6373324694500
	[0x100000, line 0x100000] : 6378101310500
	[0x76b00000, line 0x76b00000] : 0
	[0x76a40000, line 0x76a40000] : 6370254024500
	[0x7e5b0000, line 0x7e5b0000] : 6373824793500
	[0x7c160000, line 0x7c160000] : 6370645897500
	[0x7cb30000, line 0x7cb30000] : 6375303969000
	[0x76ab0000, line 0x76ab0000] : 6376704042000
	[0x7cc10000, line 0x7cc10000] : 6377235147500
	[0x76a80000, line 0x76a80000] : 6373958403500
	[0x76a00000, line 0x76a00000] : 6366361009500
	[0x2fc0000, line 0x2fc0000] : 6376595837000

BEFORE : access address is [0x735f0000, line 0x735f0000]
	[0x76a20000, line 0x76a20000] : 6368410007000
	[0x735f0000, line 0x735f0000] : 6378777763500
	[0x76a30000, line 0x76a30000] : 6369333867000
	[0x7d2b0000, line 0x7d2b0000] : 6372943637500
	[0x7ecf0000, line 0x7ecf0000] : 6373324694500
	[0x100000, line 0x100000] : 6378101310500
	[0x76b00000, line 0x76b00000] : 0
	[0x76a40000, line 0x76a40000] : 6370254024500
	[0x7e5b0000, line 0x7e5b0000] : 6373824793500
	[0x7c160000, line 0x7c160000] : 6370645897500
	[0x7cb30000, line 0x7cb30000] : 6375303969000
	[0x76ab0000, line 0x76ab0000] : 6376704042000
	[0x7cc10000, line 0x7cc10000] : 6377235147500
	[0x76a80000, line 0x76a80000] : 6373958403500
	[0x76a00000, line 0x76a00000] : 6366361009500
	[0x2fc0000, line 0x2fc0000] : 6376595837000

AFTER : access address is [0x735f0000, line 0x735f0000]
	[0x76a20000, line 0x76a20000] : 6368410007000
	[0x735f0000, line 0x735f0000] : 6378903594000
	[0x76a30000, line 0x76a30000] : 6369333867000
	[0x7d2b0000, line 0x7d2b0000] : 6372943637500
	[0x7ecf0000, line 0x7ecf0000] : 6373324694500
	[0x100000, line 0x100000] : 6378101310500
	[0x76b00000, line 0x76b00000] : 0
	[0x76a40000, line 0x76a40000] : 6370254024500
	[0x7e5b0000, line 0x7e5b0000] : 6373824793500
	[0x7c160000, line 0x7c160000] : 6370645897500
	[0x7cb30000, line 0x7cb30000] : 6375303969000
	[0x76ab0000, line 0x76ab0000] : 6376704042000
	[0x7cc10000, line 0x7cc10000] : 6377235147500
	[0x76a80000, line 0x76a80000] : 6373958403500
	[0x76a00000, line 0x76a00000] : 6366361009500
	[0x2fc0000, line 0x2fc0000] : 6376595837000

BEFORE : access address is [0x735f0000, line 0x735f0000]
	[0x76a20000, line 0x76a20000] : 6368410007000
	[0x735f0000, line 0x735f0000] : 6378903594000
	[0x76a30000, line 0x76a30000] : 6369333867000
	[0x7d2b0000, line 0x7d2b0000] : 6372943637500
	[0x7ecf0000, line 0x7ecf0000] : 6373324694500
	[0x100000, line 0x100000] : 6378101310500
	[0x76b00000, line 0x76b00000] : 0
	[0x76a40000, line 0x76a40000] : 6370254024500
	[0x7e5b0000, line 0x7e5b0000] : 6373824793500
	[0x7c160000, line 0x7c160000] : 6370645897500
	[0x7cb30000, line 0x7cb30000] : 6375303969000
	[0x76ab0000, line 0x76ab0000] : 6376704042000
	[0x7cc10000, line 0x7cc10000] : 6377235147500
	[0x76a80000, line 0x76a80000] : 6373958403500
	[0x76a00000, line 0x76a00000] : 6366361009500
	[0x2fc0000, line 0x2fc0000] : 6376595837000

BEFORE : access address is [0x735f0000, line 0x735f0000]
	[0x76a20000, line 0x76a20000] : 6368410007000
	[0x735f0000, line 0x735f0000] : 6378903594000
	[0x76a30000, line 0x76a30000] : 6369333867000
	[0x7d2b0000, line 0x7d2b0000] : 6372943637500
	[0x7ecf0000, line 0x7ecf0000] : 6373324694500
	[0x100000, line 0x100000] : 6378101310500
	[0x76b00000, line 0x76b00000] : 0
	[0x76a40000, line 0x76a40000] : 6370254024500
	[0x7e5b0000, line 0x7e5b0000] : 6373824793500
	[0x7c160000, line 0x7c160000] : 6370645897500
	[0x7cb30000, line 0x7cb30000] : 6375303969000
	[0x76ab0000, line 0x76ab0000] : 6376704042000
	[0x7cc10000, line 0x7cc10000] : 6377235147500
	[0x76a80000, line 0x76a80000] : 6373958403500
	[0x76a00000, line 0x76a00000] : 6366361009500
	[0x2fc0000, line 0x2fc0000] : 6376595837000

AFTER : access address is [0x735f0000, line 0x735f0000]
	[0x76a20000, line 0x76a20000] : 6368410007000
	[0x735f0000, line 0x735f0000] : 6379025427500
	[0x76a30000, line 0x76a30000] : 6369333867000
	[0x7d2b0000, line 0x7d2b0000] : 6372943637500
	[0x7ecf0000, line 0x7ecf0000] : 6373324694500
	[0x100000, line 0x100000] : 6378101310500
	[0x76b00000, line 0x76b00000] : 0
	[0x76a40000, line 0x76a40000] : 6370254024500
	[0x7e5b0000, line 0x7e5b0000] : 6373824793500
	[0x7c160000, line 0x7c160000] : 6370645897500
	[0x7cb30000, line 0x7cb30000] : 6375303969000
	[0x76ab0000, line 0x76ab0000] : 6376704042000
	[0x7cc10000, line 0x7cc10000] : 6377235147500
	[0x76a80000, line 0x76a80000] : 6373958403500
	[0x76a00000, line 0x76a00000] : 6366361009500
	[0x2fc0000, line 0x2fc0000] : 6376595837000

BEFORE : access address is [0x735f0000, line 0x735f0000]
	[0x76a20000, line 0x76a20000] : 6368410007000
	[0x735f0000, line 0x735f0000] : 6379025427500
	[0x76a30000, line 0x76a30000] : 6369333867000
	[0x7d2b0000, line 0x7d2b0000] : 6372943637500
	[0x7ecf0000, line 0x7ecf0000] : 6373324694500
	[0x100000, line 0x100000] : 6378101310500
	[0x76b00000, line 0x76b00000] : 0
	[0x76a40000, line 0x76a40000] : 6370254024500
	[0x7e5b0000, line 0x7e5b0000] : 6373824793500
	[0x7c160000, line 0x7c160000] : 6370645897500
	[0x7cb30000, line 0x7cb30000] : 6375303969000
	[0x76ab0000, line 0x76ab0000] : 6376704042000
	[0x7cc10000, line 0x7cc10000] : 6377235147500
	[0x76a80000, line 0x76a80000] : 6373958403500
	[0x76a00000, line 0x76a00000] : 6366361009500
	[0x2fc0000, line 0x2fc0000] : 6376595837000

BEFORE : access address is [0x76b00000, line 0x76b00000]
	[0x76a20000, line 0x76a20000] : 6368410007000
	[0x735f0000, line 0x735f0000] : 6379025427500
	[0x76a30000, line 0x76a30000] : 6369333867000
	[0x7d2b0000, line 0x7d2b0000] : 6372943637500
	[0x7ecf0000, line 0x7ecf0000] : 6373324694500
	[0x100000, line 0x100000] : 6378101310500
	[0x76b00000, line 0x76b00000] : 0
	[0x76a40000, line 0x76a40000] : 6370254024500
	[0x7e5b0000, line 0x7e5b0000] : 6373824793500
	[0x7c160000, line 0x7c160000] : 6370645897500
	[0x7cb30000, line 0x7cb30000] : 6375303969000
	[0x76ab0000, line 0x76ab0000] : 6376704042000
	[0x7cc10000, line 0x7cc10000] : 6377235147500
	[0x76a80000, line 0x76a80000] : 6373958403500
	[0x76a00000, line 0x76a00000] : 6366361009500
	[0x2fc0000, line 0x2fc0000] : 6376595837000

BEFORE : access address is [0x735f0000, line 0x735f0000]
	[0x76a20000, line 0x76a20000] : 6368410007000
	[0x735f0000, line 0x735f0000] : 6379025427500
	[0x76a30000, line 0x76a30000] : 6369333867000
	[0x7d2b0000, line 0x7d2b0000] : 6372943637500
	[0x7ecf0000, line 0x7ecf0000] : 6373324694500
	[0x100000, line 0x100000] : 6378101310500
	[0x76b00000, line 0x76b00000] : 0
	[0x76a40000, line 0x76a40000] : 6370254024500
	[0x7e5b0000, line 0x7e5b0000] : 6373824793500
	[0x7c160000, line 0x7c160000] : 6370645897500
	[0x7cb30000, line 0x7cb30000] : 6375303969000
	[0x76ab0000, line 0x76ab0000] : 6376704042000
	[0x7cc10000, line 0x7cc10000] : 6377235147500
	[0x76a80000, line 0x76a80000] : 6373958403500
	[0x76a00000, line 0x76a00000] : 6366361009500
	[0x2fc0000, line 0x2fc0000] : 6376595837000

AFTER : access address is [0x735f0000, line 0x735f0000]
	[0x76a20000, line 0x76a20000] : 6368410007000
	[0x735f0000, line 0x735f0000] : 6379146449000
	[0x76a30000, line 0x76a30000] : 6369333867000
	[0x7d2b0000, line 0x7d2b0000] : 6372943637500
	[0x7ecf0000, line 0x7ecf0000] : 6373324694500
	[0x100000, line 0x100000] : 6378101310500
	[0x76b00000, line 0x76b00000] : 0
	[0x76a40000, line 0x76a40000] : 6370254024500
	[0x7e5b0000, line 0x7e5b0000] : 6373824793500
	[0x7c160000, line 0x7c160000] : 6370645897500
	[0x7cb30000, line 0x7cb30000] : 6375303969000
	[0x76ab0000, line 0x76ab0000] : 6376704042000
	[0x7cc10000, line 0x7cc10000] : 6377235147500
	[0x76a80000, line 0x76a80000] : 6373958403500
	[0x76a00000, line 0x76a00000] : 6366361009500
	[0x2fc0000, line 0x2fc0000] : 6376595837000

BEFORE : access address is [0x735f0000, line 0x735f0000]
	[0x76a20000, line 0x76a20000] : 6368410007000
	[0x735f0000, line 0x735f0000] : 6379146449000
	[0x76a30000, line 0x76a30000] : 6369333867000
	[0x7d2b0000, line 0x7d2b0000] : 6372943637500
	[0x7ecf0000, line 0x7ecf0000] : 6373324694500
	[0x100000, line 0x100000] : 6378101310500
	[0x76b00000, line 0x76b00000] : 0
	[0x76a40000, line 0x76a40000] : 6370254024500
	[0x7e5b0000, line 0x7e5b0000] : 6373824793500
	[0x7c160000, line 0x7c160000] : 6370645897500
	[0x7cb30000, line 0x7cb30000] : 6375303969000
	[0x76ab0000, line 0x76ab0000] : 6376704042000
	[0x7cc10000, line 0x7cc10000] : 6377235147500
	[0x76a80000, line 0x76a80000] : 6373958403500
	[0x76a00000, line 0x76a00000] : 6366361009500
	[0x2fc0000, line 0x2fc0000] : 6376595837000

BEFORE : access address is [0x735f0000, line 0x735f0000]
	[0x76a20000, line 0x76a20000] : 6368410007000
	[0x735f0000, line 0x735f0000] : 6379146449000
	[0x76a30000, line 0x76a30000] : 6369333867000
	[0x7d2b0000, line 0x7d2b0000] : 6372943637500
	[0x7ecf0000, line 0x7ecf0000] : 6373324694500
	[0x100000, line 0x100000] : 6378101310500
	[0x76b00000, line 0x76b00000] : 0
	[0x76a40000, line 0x76a40000] : 6370254024500
	[0x7e5b0000, line 0x7e5b0000] : 6373824793500
	[0x7c160000, line 0x7c160000] : 6370645897500
	[0x7cb30000, line 0x7cb30000] : 6375303969000
	[0x76ab0000, line 0x76ab0000] : 6376704042000
	[0x7cc10000, line 0x7cc10000] : 6377235147500
	[0x76a80000, line 0x76a80000] : 6373958403500
	[0x76a00000, line 0x76a00000] : 6366361009500
	[0x2fc0000, line 0x2fc0000] : 6376595837000

AFTER : access address is [0x735f0000, line 0x735f0000]
	[0x76a20000, line 0x76a20000] : 6368410007000
	[0x735f0000, line 0x735f0000] : 6379271114000
	[0x76a30000, line 0x76a30000] : 6369333867000
	[0x7d2b0000, line 0x7d2b0000] : 6372943637500
	[0x7ecf0000, line 0x7ecf0000] : 6373324694500
	[0x100000, line 0x100000] : 6378101310500
	[0x76b00000, line 0x76b00000] : 0
	[0x76a40000, line 0x76a40000] : 6370254024500
	[0x7e5b0000, line 0x7e5b0000] : 6373824793500
	[0x7c160000, line 0x7c160000] : 6370645897500
	[0x7cb30000, line 0x7cb30000] : 6375303969000
	[0x76ab0000, line 0x76ab0000] : 6376704042000
	[0x7cc10000, line 0x7cc10000] : 6377235147500
	[0x76a80000, line 0x76a80000] : 6373958403500
	[0x76a00000, line 0x76a00000] : 6366361009500
	[0x2fc0000, line 0x2fc0000] : 6376595837000

BEFORE : access address is [0x735f0000, line 0x735f0000]
	[0x76a20000, line 0x76a20000] : 6368410007000
	[0x735f0000, line 0x735f0000] : 6379271114000
	[0x76a30000, line 0x76a30000] : 6369333867000
	[0x7d2b0000, line 0x7d2b0000] : 6372943637500
	[0x7ecf0000, line 0x7ecf0000] : 6373324694500
	[0x100000, line 0x100000] : 6378101310500
	[0x76b00000, line 0x76b00000] : 0
	[0x76a40000, line 0x76a40000] : 6370254024500
	[0x7e5b0000, line 0x7e5b0000] : 6373824793500
	[0x7c160000, line 0x7c160000] : 6370645897500
	[0x7cb30000, line 0x7cb30000] : 6375303969000
	[0x76ab0000, line 0x76ab0000] : 6376704042000
	[0x7cc10000, line 0x7cc10000] : 6377235147500
	[0x76a80000, line 0x76a80000] : 6373958403500
	[0x76a00000, line 0x76a00000] : 6366361009500
	[0x2fc0000, line 0x2fc0000] : 6376595837000

BEFORE : access address is [0x7e960000, line 0x7e960000]
	[0x76a20000, line 0x76a20000] : 6368410007000
	[0x735f0000, line 0x735f0000] : 6379271114000
	[0x76a30000, line 0x76a30000] : 6369333867000
	[0x7d2b0000, line 0x7d2b0000] : 6372943637500
	[0x7ecf0000, line 0x7ecf0000] : 6373324694500
	[0x100000, line 0x100000] : 6378101310500
	[0x76b00000, line 0x76b00000] : 0
	[0x76a40000, line 0x76a40000] : 6370254024500
	[0x7e5b0000, line 0x7e5b0000] : 6373824793500
	[0x7c160000, line 0x7c160000] : 6370645897500
	[0x7cb30000, line 0x7cb30000] : 6375303969000
	[0x76ab0000, line 0x76ab0000] : 6376704042000
	[0x7cc10000, line 0x7cc10000] : 6377235147500
	[0x76a80000, line 0x76a80000] : 6373958403500
	[0x76a00000, line 0x76a00000] : 6366361009500
	[0x2fc0000, line 0x2fc0000] : 6376595837000

BEFORE : access address is [0x7e960000, line 0x7e960000]
	[0x76a20000, line 0x76a20000] : 6368410007000
	[0x735f0000, line 0x735f0000] : 6379271114000
	[0x76a30000, line 0x76a30000] : 6369333867000
	[0x7d2b0000, line 0x7d2b0000] : 6372943637500
	[0x7ecf0000, line 0x7ecf0000] : 6373324694500
	[0x100000, line 0x100000] : 6378101310500
	[0x76a40000, line 0x76a40000] : 6370254024500
	[0x7e5b0000, line 0x7e5b0000] : 6373824793500
	[0x7c160000, line 0x7c160000] : 6370645897500
	[0x7cb30000, line 0x7cb30000] : 6375303969000
	[0x76ab0000, line 0x76ab0000] : 6376704042000
	[0x7cc10000, line 0x7cc10000] : 6377235147500
	[0x76a80000, line 0x76a80000] : 6373958403500
	[0x76a00000, line 0x76a00000] : 6366361009500
	[0x2fc0000, line 0x2fc0000] : 6376595837000

AFTER : access address is [0x7e960000, line 0x7e960000]
	[0x76a20000, line 0x76a20000] : 6368410007000
	[0x735f0000, line 0x735f0000] : 6379271114000
	[0x76a30000, line 0x76a30000] : 6369333867000
	[0x7d2b0000, line 0x7d2b0000] : 6372943637500
	[0x7ecf0000, line 0x7ecf0000] : 6373324694500
	[0x100000, line 0x100000] : 6378101310500
	[0x7e960000, line 0x7e960000] : 0
	[0x76a40000, line 0x76a40000] : 6370254024500
	[0x7e5b0000, line 0x7e5b0000] : 6373824793500
	[0x7c160000, line 0x7c160000] : 6370645897500
	[0x7cb30000, line 0x7cb30000] : 6375303969000
	[0x76ab0000, line 0x76ab0000] : 6376704042000
	[0x7cc10000, line 0x7cc10000] : 6377235147500
	[0x76a80000, line 0x76a80000] : 6373958403500
	[0x76a00000, line 0x76a00000] : 6366361009500
	[0x2fc0000, line 0x2fc0000] : 6376595837000

BEFORE : access address is [0x7e960000, line 0x7e960000]
	[0x76a20000, line 0x76a20000] : 6368410007000
	[0x735f0000, line 0x735f0000] : 6379271114000
	[0x76a30000, line 0x76a30000] : 6369333867000
	[0x7d2b0000, line 0x7d2b0000] : 6372943637500
	[0x7ecf0000, line 0x7ecf0000] : 6373324694500
	[0x100000, line 0x100000] : 6378101310500
	[0x7e960000, line 0x7e960000] : 0
	[0x76a40000, line 0x76a40000] : 6370254024500
	[0x7e5b0000, line 0x7e5b0000] : 6373824793500
	[0x7c160000, line 0x7c160000] : 6370645897500
	[0x7cb30000, line 0x7cb30000] : 6375303969000
	[0x76ab0000, line 0x76ab0000] : 6376704042000
	[0x7cc10000, line 0x7cc10000] : 6377235147500
	[0x76a80000, line 0x76a80000] : 6373958403500
	[0x76a00000, line 0x76a00000] : 6366361009500
	[0x2fc0000, line 0x2fc0000] : 6376595837000

BEFORE : access address is [0x735f0000, line 0x735f0000]
	[0x76a20000, line 0x76a20000] : 6368410007000
	[0x735f0000, line 0x735f0000] : 6379271114000
	[0x76a30000, line 0x76a30000] : 6369333867000
	[0x7d2b0000, line 0x7d2b0000] : 6372943637500
	[0x7ecf0000, line 0x7ecf0000] : 6373324694500
	[0x100000, line 0x100000] : 6378101310500
	[0x7e960000, line 0x7e960000] : 0
	[0x76a40000, line 0x76a40000] : 6370254024500
	[0x7e5b0000, line 0x7e5b0000] : 6373824793500
	[0x7c160000, line 0x7c160000] : 6370645897500
	[0x7cb30000, line 0x7cb30000] : 6375303969000
	[0x76ab0000, line 0x76ab0000] : 6376704042000
	[0x7cc10000, line 0x7cc10000] : 6377235147500
	[0x76a80000, line 0x76a80000] : 6373958403500
	[0x76a00000, line 0x76a00000] : 6366361009500
	[0x2fc0000, line 0x2fc0000] : 6376595837000

AFTER : access address is [0x735f0000, line 0x735f0000]
	[0x76a20000, line 0x76a20000] : 6368410007000
	[0x735f0000, line 0x735f0000] : 6379394050000
	[0x76a30000, line 0x76a30000] : 6369333867000
	[0x7d2b0000, line 0x7d2b0000] : 6372943637500
	[0x7ecf0000, line 0x7ecf0000] : 6373324694500
	[0x100000, line 0x100000] : 6378101310500
	[0x7e960000, line 0x7e960000] : 0
	[0x76a40000, line 0x76a40000] : 6370254024500
	[0x7e5b0000, line 0x7e5b0000] : 6373824793500
	[0x7c160000, line 0x7c160000] : 6370645897500
	[0x7cb30000, line 0x7cb30000] : 6375303969000
	[0x76ab0000, line 0x76ab0000] : 6376704042000
	[0x7cc10000, line 0x7cc10000] : 6377235147500
	[0x76a80000, line 0x76a80000] : 6373958403500
	[0x76a00000, line 0x76a00000] : 6366361009500
	[0x2fc0000, line 0x2fc0000] : 6376595837000

BEFORE : access address is [0x735f0000, line 0x735f0000]
	[0x76a20000, line 0x76a20000] : 6368410007000
	[0x735f0000, line 0x735f0000] : 6379394050000
	[0x76a30000, line 0x76a30000] : 6369333867000
	[0x7d2b0000, line 0x7d2b0000] : 6372943637500
	[0x7ecf0000, line 0x7ecf0000] : 6373324694500
	[0x100000, line 0x100000] : 6378101310500
	[0x7e960000, line 0x7e960000] : 0
	[0x76a40000, line 0x76a40000] : 6370254024500
	[0x7e5b0000, line 0x7e5b0000] : 6373824793500
	[0x7c160000, line 0x7c160000] : 6370645897500
	[0x7cb30000, line 0x7cb30000] : 6375303969000
	[0x76ab0000, line 0x76ab0000] : 6376704042000
	[0x7cc10000, line 0x7cc10000] : 6377235147500
	[0x76a80000, line 0x76a80000] : 6373958403500
	[0x76a00000, line 0x76a00000] : 6366361009500
	[0x2fc0000, line 0x2fc0000] : 6376595837000

Exiting @ tick 6379419902000 because a thread reached the max instruction count
